* NGSPICE file created from mag_files/POSTLAYOUT/pmos_flat_48x48.ext - technology: sky130A

.subckt mag_files/POSTLAYOUT/pmos_flat_48x48 G D PW S
X0 S.t4606 G.t0 D.t4511 S.t152 sky130_fd_pr__pfet_g5v0d10v5 ad=0p pd=0u as=0p ps=0u w=4.38e+06u l=500000u
X1 S.t4605 G.t1 D.t4510 S.t218 sky130_fd_pr__pfet_g5v0d10v5 ad=0p pd=0u as=0p ps=0u w=4.38e+06u l=500000u
X2 S.t4604 G.t2 D.t4509 S.t218 sky130_fd_pr__pfet_g5v0d10v5 ad=0p pd=0u as=0p ps=0u w=4.38e+06u l=500000u
X3 S.t4603 G.t3 D.t4508 S.t216 sky130_fd_pr__pfet_g5v0d10v5 ad=0p pd=0u as=0p ps=0u w=4.38e+06u l=500000u
X4 S.t4602 G.t4 D.t4507 S.t187 sky130_fd_pr__pfet_g5v0d10v5 ad=0p pd=0u as=0p ps=0u w=4.38e+06u l=500000u
X5 D.t4506 G.t5 S.t4601 S.t169 sky130_fd_pr__pfet_g5v0d10v5 ad=0p pd=0u as=0p ps=0u w=4.38e+06u l=500000u
X6 S.t4600 G.t6 D.t4505 S.t137 sky130_fd_pr__pfet_g5v0d10v5 ad=0p pd=0u as=0p ps=0u w=4.38e+06u l=500000u
X7 S.t4599 G.t7 D.t4504 S.t88 sky130_fd_pr__pfet_g5v0d10v5 ad=0p pd=0u as=0p ps=0u w=4.38e+06u l=500000u
X8 S.t4598 G.t8 D.t4503 S.t158 sky130_fd_pr__pfet_g5v0d10v5 ad=0p pd=0u as=0p ps=0u w=4.38e+06u l=500000u
X9 S.t4597 G.t9 D.t4502 S.t70 sky130_fd_pr__pfet_g5v0d10v5 ad=0p pd=0u as=0p ps=0u w=4.38e+06u l=500000u
X10 S.t4596 G.t10 D.t4501 S.t9 sky130_fd_pr__pfet_g5v0d10v5 ad=0p pd=0u as=0p ps=0u w=4.38e+06u l=500000u
X11 S.t4595 G.t11 D.t4500 S.t193 sky130_fd_pr__pfet_g5v0d10v5 ad=0p pd=0u as=0p ps=0u w=4.38e+06u l=500000u
X12 D.t4499 G.t12 S.t4594 S.t43 sky130_fd_pr__pfet_g5v0d10v5 ad=0p pd=0u as=0p ps=0u w=4.38e+06u l=500000u
X13 D.t4498 G.t13 S.t4593 S.t139 sky130_fd_pr__pfet_g5v0d10v5 ad=0p pd=0u as=0p ps=0u w=4.38e+06u l=500000u
X14 D.t4497 G.t14 S.t4592 S.t21 sky130_fd_pr__pfet_g5v0d10v5 ad=0p pd=0u as=0p ps=0u w=4.38e+06u l=500000u
X15 S.t4591 G.t15 D.t4496 S.t102 sky130_fd_pr__pfet_g5v0d10v5 ad=0p pd=0u as=0p ps=0u w=4.38e+06u l=500000u
X16 S.t4590 G.t16 D.t4495 S.t58 sky130_fd_pr__pfet_g5v0d10v5 ad=0p pd=0u as=0p ps=0u w=4.38e+06u l=500000u
X17 S.t4589 G.t17 D.t4494 S.t209 sky130_fd_pr__pfet_g5v0d10v5 ad=0p pd=0u as=0p ps=0u w=4.38e+06u l=500000u
X18 D.t4493 G.t18 S.t4588 S.t181 sky130_fd_pr__pfet_g5v0d10v5 ad=0p pd=0u as=0p ps=0u w=4.38e+06u l=500000u
X19 S.t4587 G.t19 D.t4492 S.t122 sky130_fd_pr__pfet_g5v0d10v5 ad=0p pd=0u as=0p ps=0u w=4.38e+06u l=500000u
X20 S.t4586 G.t20 D.t4491 S.t172 sky130_fd_pr__pfet_g5v0d10v5 ad=0p pd=0u as=0p ps=0u w=4.38e+06u l=500000u
X21 D.t4490 G.t21 S.t4585 S.t97 sky130_fd_pr__pfet_g5v0d10v5 ad=0p pd=0u as=0p ps=0u w=4.38e+06u l=500000u
X22 S.t4584 G.t22 D.t4489 S.t0 sky130_fd_pr__pfet_g5v0d10v5 ad=0p pd=0u as=0p ps=0u w=4.38e+06u l=500000u
X23 D.t4488 G.t23 S.t4583 S.t406 sky130_fd_pr__pfet_g5v0d10v5 ad=0p pd=0u as=0p ps=0u w=4.38e+06u l=500000u
X24 D.t4487 G.t24 S.t4582 S.t200 sky130_fd_pr__pfet_g5v0d10v5 ad=0p pd=0u as=0p ps=0u w=4.38e+06u l=500000u
X25 S.t4581 G.t25 D.t4486 S.t37 sky130_fd_pr__pfet_g5v0d10v5 ad=0p pd=0u as=0p ps=0u w=4.38e+06u l=500000u
X26 D.t4485 G.t26 S.t4580 S.t538 sky130_fd_pr__pfet_g5v0d10v5 ad=0p pd=0u as=0p ps=0u w=4.38e+06u l=500000u
X27 D.t4484 G.t27 S.t4579 S.t60 sky130_fd_pr__pfet_g5v0d10v5 ad=0p pd=0u as=0p ps=0u w=4.38e+06u l=500000u
X28 D.t4483 G.t28 S.t4578 S.t137 sky130_fd_pr__pfet_g5v0d10v5 ad=0p pd=0u as=0p ps=0u w=4.38e+06u l=500000u
X29 S.t4577 G.t29 D.t4482 S.t143 sky130_fd_pr__pfet_g5v0d10v5 ad=0p pd=0u as=0p ps=0u w=4.38e+06u l=500000u
X30 S.t4576 G.t30 D.t4481 S.t165 sky130_fd_pr__pfet_g5v0d10v5 ad=0p pd=0u as=0p ps=0u w=4.38e+06u l=500000u
X31 D.t4480 G.t31 S.t4575 S.t45 sky130_fd_pr__pfet_g5v0d10v5 ad=0p pd=0u as=0p ps=0u w=4.38e+06u l=500000u
X32 D.t4479 G.t32 S.t4574 S.t187 sky130_fd_pr__pfet_g5v0d10v5 ad=0p pd=0u as=0p ps=0u w=4.38e+06u l=500000u
X33 S.t4573 G.t33 D.t4478 S.t41 sky130_fd_pr__pfet_g5v0d10v5 ad=0p pd=0u as=0p ps=0u w=4.38e+06u l=500000u
X34 S.t4572 G.t34 D.t4477 S.t67 sky130_fd_pr__pfet_g5v0d10v5 ad=0p pd=0u as=0p ps=0u w=4.38e+06u l=500000u
X35 S.t4571 G.t35 D.t4476 S.t43 sky130_fd_pr__pfet_g5v0d10v5 ad=0p pd=0u as=0p ps=0u w=4.38e+06u l=500000u
X36 S.t4570 G.t36 D.t4475 S.t45 sky130_fd_pr__pfet_g5v0d10v5 ad=0p pd=0u as=0p ps=0u w=4.38e+06u l=500000u
X37 S.t4569 G.t37 D.t4474 S.t4 sky130_fd_pr__pfet_g5v0d10v5 ad=0p pd=0u as=0p ps=0u w=4.38e+06u l=500000u
X38 D.t4473 G.t38 S.t4568 S.t56 sky130_fd_pr__pfet_g5v0d10v5 ad=0p pd=0u as=0p ps=0u w=4.38e+06u l=500000u
X39 S.t4567 G.t39 D.t4472 S.t176 sky130_fd_pr__pfet_g5v0d10v5 ad=0p pd=0u as=0p ps=0u w=4.38e+06u l=500000u
X40 D.t4471 G.t40 S.t4566 S.t262 sky130_fd_pr__pfet_g5v0d10v5 ad=0p pd=0u as=0p ps=0u w=4.38e+06u l=500000u
X41 S.t4565 G.t41 D.t4470 S.t141 sky130_fd_pr__pfet_g5v0d10v5 ad=0p pd=0u as=0p ps=0u w=4.38e+06u l=500000u
X42 D.t4469 G.t42 S.t4564 S.t174 sky130_fd_pr__pfet_g5v0d10v5 ad=0p pd=0u as=0p ps=0u w=4.38e+06u l=500000u
X43 D.t4468 G.t43 S.t4563 S.t167 sky130_fd_pr__pfet_g5v0d10v5 ad=0p pd=0u as=0p ps=0u w=4.38e+06u l=500000u
X44 D.t4467 G.t44 S.t4562 S.t270 sky130_fd_pr__pfet_g5v0d10v5 ad=0p pd=0u as=0p ps=0u w=4.38e+06u l=500000u
X45 D.t4466 G.t45 S.t4561 S.t332 sky130_fd_pr__pfet_g5v0d10v5 ad=0p pd=0u as=0p ps=0u w=4.38e+06u l=500000u
X46 D.t4465 G.t46 S.t4560 S.t16 sky130_fd_pr__pfet_g5v0d10v5 ad=0p pd=0u as=0p ps=0u w=4.38e+06u l=500000u
X47 S.t4559 G.t47 D.t4464 S.t43 sky130_fd_pr__pfet_g5v0d10v5 ad=0p pd=0u as=0p ps=0u w=4.38e+06u l=500000u
X48 D.t4463 G.t48 S.t4558 S.t231 sky130_fd_pr__pfet_g5v0d10v5 ad=0p pd=0u as=0p ps=0u w=4.38e+06u l=500000u
X49 D.t4462 G.t49 S.t4557 S.t262 sky130_fd_pr__pfet_g5v0d10v5 ad=0p pd=0u as=0p ps=0u w=4.38e+06u l=500000u
X50 S.t4556 G.t50 D.t4461 S.t35 sky130_fd_pr__pfet_g5v0d10v5 ad=0p pd=0u as=0p ps=0u w=4.38e+06u l=500000u
X51 D.t2208 G.t51 S.t4555 S.t4 sky130_fd_pr__pfet_g5v0d10v5 ad=0p pd=0u as=0p ps=0u w=4.38e+06u l=500000u
X52 D.t2207 G.t52 S.t4554 S.t163 sky130_fd_pr__pfet_g5v0d10v5 ad=0p pd=0u as=0p ps=0u w=4.38e+06u l=500000u
X53 D.t2206 G.t53 S.t4553 S.t2 sky130_fd_pr__pfet_g5v0d10v5 ad=0p pd=0u as=0p ps=0u w=4.38e+06u l=500000u
X54 S.t4552 G.t54 D.t2205 S.t167 sky130_fd_pr__pfet_g5v0d10v5 ad=0p pd=0u as=0p ps=0u w=4.38e+06u l=500000u
X55 S.t4551 G.t55 D.t2204 S.t158 sky130_fd_pr__pfet_g5v0d10v5 ad=0p pd=0u as=0p ps=0u w=4.38e+06u l=500000u
X56 D.t2203 G.t56 S.t4550 S.t187 sky130_fd_pr__pfet_g5v0d10v5 ad=0p pd=0u as=0p ps=0u w=4.38e+06u l=500000u
X57 D.t2202 G.t57 S.t4549 S.t2 sky130_fd_pr__pfet_g5v0d10v5 ad=0p pd=0u as=0p ps=0u w=4.38e+06u l=500000u
X58 D.t2201 G.t58 S.t4548 S.t64 sky130_fd_pr__pfet_g5v0d10v5 ad=0p pd=0u as=0p ps=0u w=4.38e+06u l=500000u
X59 D.t2200 G.t59 S.t4547 S.t23 sky130_fd_pr__pfet_g5v0d10v5 ad=0p pd=0u as=0p ps=0u w=4.38e+06u l=500000u
X60 S.t4546 G.t60 D.t2199 S.t388 sky130_fd_pr__pfet_g5v0d10v5 ad=0p pd=0u as=0p ps=0u w=4.38e+06u l=500000u
X61 D.t2198 G.t61 S.t4545 S.t152 sky130_fd_pr__pfet_g5v0d10v5 ad=0p pd=0u as=0p ps=0u w=4.38e+06u l=500000u
X62 S.t4544 G.t62 D.t2197 S.t150 sky130_fd_pr__pfet_g5v0d10v5 ad=0p pd=0u as=0p ps=0u w=4.38e+06u l=500000u
X63 D.t2196 G.t63 S.t4543 S.t148 sky130_fd_pr__pfet_g5v0d10v5 ad=0p pd=0u as=0p ps=0u w=4.38e+06u l=500000u
X64 S.t4542 G.t64 D.t2195 S.t14 sky130_fd_pr__pfet_g5v0d10v5 ad=0p pd=0u as=0p ps=0u w=4.38e+06u l=500000u
X65 D.t2194 G.t65 S.t4541 S.t21 sky130_fd_pr__pfet_g5v0d10v5 ad=0p pd=0u as=0p ps=0u w=4.38e+06u l=500000u
X66 D.t2193 G.t66 S.t4540 S.t77 sky130_fd_pr__pfet_g5v0d10v5 ad=0p pd=0u as=0p ps=0u w=4.38e+06u l=500000u
X67 S.t4539 G.t67 D.t2192 S.t100 sky130_fd_pr__pfet_g5v0d10v5 ad=0p pd=0u as=0p ps=0u w=4.38e+06u l=500000u
X68 S.t4538 G.t68 D.t2191 S.t134 sky130_fd_pr__pfet_g5v0d10v5 ad=0p pd=0u as=0p ps=0u w=4.38e+06u l=500000u
X69 S.t4537 G.t69 D.t2190 S.t21 sky130_fd_pr__pfet_g5v0d10v5 ad=0p pd=0u as=0p ps=0u w=4.38e+06u l=500000u
X70 S.t4536 G.t70 D.t2189 S.t357 sky130_fd_pr__pfet_g5v0d10v5 ad=0p pd=0u as=0p ps=0u w=4.38e+06u l=500000u
X71 D.t2188 G.t71 S.t4535 S.t27 sky130_fd_pr__pfet_g5v0d10v5 ad=0p pd=0u as=0p ps=0u w=4.38e+06u l=500000u
X72 S.t4534 G.t72 D.t2187 S.t16 sky130_fd_pr__pfet_g5v0d10v5 ad=0p pd=0u as=0p ps=0u w=4.38e+06u l=500000u
X73 D.t2186 G.t73 S.t4533 S.t60 sky130_fd_pr__pfet_g5v0d10v5 ad=0p pd=0u as=0p ps=0u w=4.38e+06u l=500000u
X74 D.t2185 G.t74 S.t4532 S.t79 sky130_fd_pr__pfet_g5v0d10v5 ad=0p pd=0u as=0p ps=0u w=4.38e+06u l=500000u
X75 S.t4531 G.t75 D.t2184 S.t122 sky130_fd_pr__pfet_g5v0d10v5 ad=0p pd=0u as=0p ps=0u w=4.38e+06u l=500000u
X76 D.t2183 G.t76 S.t4530 S.t33 sky130_fd_pr__pfet_g5v0d10v5 ad=0p pd=0u as=0p ps=0u w=4.38e+06u l=500000u
X77 D.t2182 G.t77 S.t4529 S.t91 sky130_fd_pr__pfet_g5v0d10v5 ad=0p pd=0u as=0p ps=0u w=4.38e+06u l=500000u
X78 S.t4528 G.t78 D.t2181 S.t97 sky130_fd_pr__pfet_g5v0d10v5 ad=0p pd=0u as=0p ps=0u w=4.38e+06u l=500000u
X79 S.t4527 G.t79 D.t2180 S.t88 sky130_fd_pr__pfet_g5v0d10v5 ad=0p pd=0u as=0p ps=0u w=4.38e+06u l=500000u
X80 S.t4526 G.t80 D.t2179 S.t64 sky130_fd_pr__pfet_g5v0d10v5 ad=0p pd=0u as=0p ps=0u w=4.38e+06u l=500000u
X81 S.t4525 G.t81 D.t2178 S.t2 sky130_fd_pr__pfet_g5v0d10v5 ad=0p pd=0u as=0p ps=0u w=4.38e+06u l=500000u
X82 S.t4524 G.t82 D.t2177 S.t321 sky130_fd_pr__pfet_g5v0d10v5 ad=0p pd=0u as=0p ps=0u w=4.38e+06u l=500000u
X83 D.t2176 G.t83 S.t4523 S.t116 sky130_fd_pr__pfet_g5v0d10v5 ad=0p pd=0u as=0p ps=0u w=4.38e+06u l=500000u
X84 S.t4522 G.t84 D.t2175 S.t64 sky130_fd_pr__pfet_g5v0d10v5 ad=0p pd=0u as=0p ps=0u w=4.38e+06u l=500000u
X85 S.t4521 G.t85 D.t2174 S.t58 sky130_fd_pr__pfet_g5v0d10v5 ad=0p pd=0u as=0p ps=0u w=4.38e+06u l=500000u
X86 D.t2173 G.t86 S.t4520 S.t79 sky130_fd_pr__pfet_g5v0d10v5 ad=0p pd=0u as=0p ps=0u w=4.38e+06u l=500000u
X87 S.t4519 G.t87 D.t2172 S.t152 sky130_fd_pr__pfet_g5v0d10v5 ad=0p pd=0u as=0p ps=0u w=4.38e+06u l=500000u
X88 S.t4518 G.t88 D.t2171 S.t218 sky130_fd_pr__pfet_g5v0d10v5 ad=0p pd=0u as=0p ps=0u w=4.38e+06u l=500000u
X89 S.t4517 G.t89 D.t2170 S.t27 sky130_fd_pr__pfet_g5v0d10v5 ad=0p pd=0u as=0p ps=0u w=4.38e+06u l=500000u
X90 D.t2169 G.t90 S.t4516 S.t73 sky130_fd_pr__pfet_g5v0d10v5 ad=0p pd=0u as=0p ps=0u w=4.38e+06u l=500000u
X91 S.t4515 G.t91 D.t2168 S.t70 sky130_fd_pr__pfet_g5v0d10v5 ad=0p pd=0u as=0p ps=0u w=4.38e+06u l=500000u
X92 S.t4514 G.t92 D.t2167 S.t187 sky130_fd_pr__pfet_g5v0d10v5 ad=0p pd=0u as=0p ps=0u w=4.38e+06u l=500000u
X93 S.t4513 G.t93 D.t2166 S.t366 sky130_fd_pr__pfet_g5v0d10v5 ad=0p pd=0u as=0p ps=0u w=4.38e+06u l=500000u
X94 D.t2165 G.t94 S.t4512 S.t163 sky130_fd_pr__pfet_g5v0d10v5 ad=0p pd=0u as=0p ps=0u w=4.38e+06u l=500000u
X95 S.t4511 G.t95 D.t2164 S.t183 sky130_fd_pr__pfet_g5v0d10v5 ad=0p pd=0u as=0p ps=0u w=4.38e+06u l=500000u
X96 D.t2163 G.t96 S.t4510 S.t139 sky130_fd_pr__pfet_g5v0d10v5 ad=0p pd=0u as=0p ps=0u w=4.38e+06u l=500000u
X97 D.t2162 G.t97 S.t4509 S.t45 sky130_fd_pr__pfet_g5v0d10v5 ad=0p pd=0u as=0p ps=0u w=4.38e+06u l=500000u
X98 D.t2161 G.t98 S.t4508 S.t54 sky130_fd_pr__pfet_g5v0d10v5 ad=0p pd=0u as=0p ps=0u w=4.38e+06u l=500000u
X99 S.t4507 G.t99 D.t2160 S.t37 sky130_fd_pr__pfet_g5v0d10v5 ad=0p pd=0u as=0p ps=0u w=4.38e+06u l=500000u
X100 D.t2159 G.t100 S.t4506 S.t64 sky130_fd_pr__pfet_g5v0d10v5 ad=0p pd=0u as=0p ps=0u w=4.38e+06u l=500000u
X101 S.t4505 G.t101 D.t2158 S.t37 sky130_fd_pr__pfet_g5v0d10v5 ad=0p pd=0u as=0p ps=0u w=4.38e+06u l=500000u
X102 D.t2157 G.t102 S.t4504 S.t60 sky130_fd_pr__pfet_g5v0d10v5 ad=0p pd=0u as=0p ps=0u w=4.38e+06u l=500000u
X103 D.t2156 G.t103 S.t4503 S.t51 sky130_fd_pr__pfet_g5v0d10v5 ad=0p pd=0u as=0p ps=0u w=4.38e+06u l=500000u
X104 S.t4502 G.t104 D.t2155 S.t56 sky130_fd_pr__pfet_g5v0d10v5 ad=0p pd=0u as=0p ps=0u w=4.38e+06u l=500000u
X105 D.t2154 G.t105 S.t4501 S.t105 sky130_fd_pr__pfet_g5v0d10v5 ad=0p pd=0u as=0p ps=0u w=4.38e+06u l=500000u
X106 S.t4500 G.t106 D.t2153 S.t60 sky130_fd_pr__pfet_g5v0d10v5 ad=0p pd=0u as=0p ps=0u w=4.38e+06u l=500000u
X107 S.t4499 G.t107 D.t2152 S.t330 sky130_fd_pr__pfet_g5v0d10v5 ad=0p pd=0u as=0p ps=0u w=4.38e+06u l=500000u
X108 D.t2151 G.t108 S.t4498 S.t43 sky130_fd_pr__pfet_g5v0d10v5 ad=0p pd=0u as=0p ps=0u w=4.38e+06u l=500000u
X109 D.t4042 G.t109 S.t4497 S.t29 sky130_fd_pr__pfet_g5v0d10v5 ad=0p pd=0u as=0p ps=0u w=4.38e+06u l=500000u
X110 D.t4041 G.t110 S.t4496 S.t95 sky130_fd_pr__pfet_g5v0d10v5 ad=0p pd=0u as=0p ps=0u w=4.38e+06u l=500000u
X111 S.t4495 G.t111 D.t4040 S.t41 sky130_fd_pr__pfet_g5v0d10v5 ad=0p pd=0u as=0p ps=0u w=4.38e+06u l=500000u
X112 S.t4494 G.t112 D.t4039 S.t0 sky130_fd_pr__pfet_g5v0d10v5 ad=0p pd=0u as=0p ps=0u w=4.38e+06u l=500000u
X113 D.t4038 G.t113 S.t4493 S.t31 sky130_fd_pr__pfet_g5v0d10v5 ad=0p pd=0u as=0p ps=0u w=4.38e+06u l=500000u
X114 S.t4492 G.t114 D.t4037 S.t39 sky130_fd_pr__pfet_g5v0d10v5 ad=0p pd=0u as=0p ps=0u w=4.38e+06u l=500000u
X115 S.t4491 G.t115 D.t4036 S.t43 sky130_fd_pr__pfet_g5v0d10v5 ad=0p pd=0u as=0p ps=0u w=4.38e+06u l=500000u
X116 D.t4035 G.t116 S.t4490 S.t167 sky130_fd_pr__pfet_g5v0d10v5 ad=0p pd=0u as=0p ps=0u w=4.38e+06u l=500000u
X117 D.t4034 G.t117 S.t4489 S.t35 sky130_fd_pr__pfet_g5v0d10v5 ad=0p pd=0u as=0p ps=0u w=4.38e+06u l=500000u
X118 S.t4488 G.t118 D.t4033 S.t81 sky130_fd_pr__pfet_g5v0d10v5 ad=0p pd=0u as=0p ps=0u w=4.38e+06u l=500000u
X119 S.t4487 G.t119 D.t4032 S.t4 sky130_fd_pr__pfet_g5v0d10v5 ad=0p pd=0u as=0p ps=0u w=4.38e+06u l=500000u
X120 S.t4486 G.t120 D.t4031 S.t79 sky130_fd_pr__pfet_g5v0d10v5 ad=0p pd=0u as=0p ps=0u w=4.38e+06u l=500000u
X121 S.t4485 G.t121 D.t4030 S.t165 sky130_fd_pr__pfet_g5v0d10v5 ad=0p pd=0u as=0p ps=0u w=4.38e+06u l=500000u
X122 S.t4484 G.t122 D.t4029 S.t83 sky130_fd_pr__pfet_g5v0d10v5 ad=0p pd=0u as=0p ps=0u w=4.38e+06u l=500000u
X123 S.t4483 G.t123 D.t4028 S.t75 sky130_fd_pr__pfet_g5v0d10v5 ad=0p pd=0u as=0p ps=0u w=4.38e+06u l=500000u
X124 D.t4027 G.t124 S.t4482 S.t77 sky130_fd_pr__pfet_g5v0d10v5 ad=0p pd=0u as=0p ps=0u w=4.38e+06u l=500000u
X125 S.t4481 G.t125 D.t4026 S.t58 sky130_fd_pr__pfet_g5v0d10v5 ad=0p pd=0u as=0p ps=0u w=4.38e+06u l=500000u
X126 S.t4480 G.t126 D.t4025 S.t23 sky130_fd_pr__pfet_g5v0d10v5 ad=0p pd=0u as=0p ps=0u w=4.38e+06u l=500000u
X127 D.t4024 G.t127 S.t4479 S.t14 sky130_fd_pr__pfet_g5v0d10v5 ad=0p pd=0u as=0p ps=0u w=4.38e+06u l=500000u
X128 D.t4023 G.t128 S.t4478 S.t150 sky130_fd_pr__pfet_g5v0d10v5 ad=0p pd=0u as=0p ps=0u w=4.38e+06u l=500000u
X129 S.t4477 G.t129 D.t4022 S.t64 sky130_fd_pr__pfet_g5v0d10v5 ad=0p pd=0u as=0p ps=0u w=4.38e+06u l=500000u
X130 S.t4476 G.t130 D.t4021 S.t45 sky130_fd_pr__pfet_g5v0d10v5 ad=0p pd=0u as=0p ps=0u w=4.38e+06u l=500000u
X131 D.t4020 G.t131 S.t4475 S.t62 sky130_fd_pr__pfet_g5v0d10v5 ad=0p pd=0u as=0p ps=0u w=4.38e+06u l=500000u
X132 D.t4019 G.t132 S.t4474 S.t9 sky130_fd_pr__pfet_g5v0d10v5 ad=0p pd=0u as=0p ps=0u w=4.38e+06u l=500000u
X133 S.t4473 G.t133 D.t4018 S.t7 sky130_fd_pr__pfet_g5v0d10v5 ad=0p pd=0u as=0p ps=0u w=4.38e+06u l=500000u
X134 D.t4017 G.t134 S.t4472 S.t0 sky130_fd_pr__pfet_g5v0d10v5 ad=0p pd=0u as=0p ps=0u w=4.38e+06u l=500000u
X135 S.t4471 G.t135 D.t4016 S.t51 sky130_fd_pr__pfet_g5v0d10v5 ad=0p pd=0u as=0p ps=0u w=4.38e+06u l=500000u
X136 D.t4015 G.t136 S.t4470 S.t114 sky130_fd_pr__pfet_g5v0d10v5 ad=0p pd=0u as=0p ps=0u w=4.38e+06u l=500000u
X137 D.t4014 G.t137 S.t4469 S.t100 sky130_fd_pr__pfet_g5v0d10v5 ad=0p pd=0u as=0p ps=0u w=4.38e+06u l=500000u
X138 S.t4468 G.t138 D.t4013 S.t43 sky130_fd_pr__pfet_g5v0d10v5 ad=0p pd=0u as=0p ps=0u w=4.38e+06u l=500000u
X139 D.t4012 G.t139 S.t4467 S.t47 sky130_fd_pr__pfet_g5v0d10v5 ad=0p pd=0u as=0p ps=0u w=4.38e+06u l=500000u
X140 D.t4011 G.t140 S.t4466 S.t262 sky130_fd_pr__pfet_g5v0d10v5 ad=0p pd=0u as=0p ps=0u w=4.38e+06u l=500000u
X141 D.t4010 G.t141 S.t4465 S.t218 sky130_fd_pr__pfet_g5v0d10v5 ad=0p pd=0u as=0p ps=0u w=4.38e+06u l=500000u
X142 S.t4464 G.t142 D.t4009 S.t152 sky130_fd_pr__pfet_g5v0d10v5 ad=0p pd=0u as=0p ps=0u w=4.38e+06u l=500000u
X143 S.t4463 G.t143 D.t4008 S.t33 sky130_fd_pr__pfet_g5v0d10v5 ad=0p pd=0u as=0p ps=0u w=4.38e+06u l=500000u
X144 D.t4007 G.t144 S.t4462 S.t23 sky130_fd_pr__pfet_g5v0d10v5 ad=0p pd=0u as=0p ps=0u w=4.38e+06u l=500000u
X145 S.t4461 G.t145 D.t4006 S.t35 sky130_fd_pr__pfet_g5v0d10v5 ad=0p pd=0u as=0p ps=0u w=4.38e+06u l=500000u
X146 D.t4005 G.t146 S.t4460 S.t443 sky130_fd_pr__pfet_g5v0d10v5 ad=0p pd=0u as=0p ps=0u w=4.38e+06u l=500000u
X147 D.t4004 G.t147 S.t4459 S.t158 sky130_fd_pr__pfet_g5v0d10v5 ad=0p pd=0u as=0p ps=0u w=4.38e+06u l=500000u
X148 D.t4003 G.t148 S.t4458 S.t270 sky130_fd_pr__pfet_g5v0d10v5 ad=0p pd=0u as=0p ps=0u w=4.38e+06u l=500000u
X149 D.t4002 G.t149 S.t4457 S.t64 sky130_fd_pr__pfet_g5v0d10v5 ad=0p pd=0u as=0p ps=0u w=4.38e+06u l=500000u
X150 S.t4456 G.t150 D.t4001 S.t21 sky130_fd_pr__pfet_g5v0d10v5 ad=0p pd=0u as=0p ps=0u w=4.38e+06u l=500000u
X151 D.t4000 G.t151 S.t4455 S.t209 sky130_fd_pr__pfet_g5v0d10v5 ad=0p pd=0u as=0p ps=0u w=4.38e+06u l=500000u
X152 D.t3999 G.t152 S.t4454 S.t58 sky130_fd_pr__pfet_g5v0d10v5 ad=0p pd=0u as=0p ps=0u w=4.38e+06u l=500000u
X153 S.t4453 G.t153 D.t3998 S.t388 sky130_fd_pr__pfet_g5v0d10v5 ad=0p pd=0u as=0p ps=0u w=4.38e+06u l=500000u
X154 S.t4452 G.t154 D.t3997 S.t14 sky130_fd_pr__pfet_g5v0d10v5 ad=0p pd=0u as=0p ps=0u w=4.38e+06u l=500000u
X155 D.t3996 G.t155 S.t4451 S.t56 sky130_fd_pr__pfet_g5v0d10v5 ad=0p pd=0u as=0p ps=0u w=4.38e+06u l=500000u
X156 D.t3995 G.t156 S.t4450 S.t126 sky130_fd_pr__pfet_g5v0d10v5 ad=0p pd=0u as=0p ps=0u w=4.38e+06u l=500000u
X157 D.t3994 G.t157 S.t4449 S.t288 sky130_fd_pr__pfet_g5v0d10v5 ad=0p pd=0u as=0p ps=0u w=4.38e+06u l=500000u
X158 D.t3993 G.t158 S.t4448 S.t7 sky130_fd_pr__pfet_g5v0d10v5 ad=0p pd=0u as=0p ps=0u w=4.38e+06u l=500000u
X159 S.t4447 G.t159 D.t3992 S.t0 sky130_fd_pr__pfet_g5v0d10v5 ad=0p pd=0u as=0p ps=0u w=4.38e+06u l=500000u
X160 D.t3991 G.t160 S.t4446 S.t37 sky130_fd_pr__pfet_g5v0d10v5 ad=0p pd=0u as=0p ps=0u w=4.38e+06u l=500000u
X161 D.t3990 G.t161 S.t4445 S.t77 sky130_fd_pr__pfet_g5v0d10v5 ad=0p pd=0u as=0p ps=0u w=4.38e+06u l=500000u
X162 D.t3989 G.t162 S.t4444 S.t88 sky130_fd_pr__pfet_g5v0d10v5 ad=0p pd=0u as=0p ps=0u w=4.38e+06u l=500000u
X163 D.t3988 G.t163 S.t4443 S.t97 sky130_fd_pr__pfet_g5v0d10v5 ad=0p pd=0u as=0p ps=0u w=4.38e+06u l=500000u
X164 S.t4442 G.t164 D.t3987 S.t538 sky130_fd_pr__pfet_g5v0d10v5 ad=0p pd=0u as=0p ps=0u w=4.38e+06u l=500000u
X165 D.t3986 G.t165 S.t4441 S.t330 sky130_fd_pr__pfet_g5v0d10v5 ad=0p pd=0u as=0p ps=0u w=4.38e+06u l=500000u
X166 S.t4440 G.t166 D.t2548 S.t218 sky130_fd_pr__pfet_g5v0d10v5 ad=0p pd=0u as=0p ps=0u w=4.38e+06u l=500000u
X167 D.t2547 G.t167 S.t4439 S.t60 sky130_fd_pr__pfet_g5v0d10v5 ad=0p pd=0u as=0p ps=0u w=4.38e+06u l=500000u
X168 D.t2546 G.t168 S.t4438 S.t221 sky130_fd_pr__pfet_g5v0d10v5 ad=0p pd=0u as=0p ps=0u w=4.38e+06u l=500000u
X169 D.t2545 G.t169 S.t4437 S.t79 sky130_fd_pr__pfet_g5v0d10v5 ad=0p pd=0u as=0p ps=0u w=4.38e+06u l=500000u
X170 D.t2544 G.t170 S.t4436 S.t11 sky130_fd_pr__pfet_g5v0d10v5 ad=0p pd=0u as=0p ps=0u w=4.38e+06u l=500000u
X171 S.t4435 G.t171 D.t2543 S.t137 sky130_fd_pr__pfet_g5v0d10v5 ad=0p pd=0u as=0p ps=0u w=4.38e+06u l=500000u
X172 D.t2542 G.t172 S.t4434 S.t169 sky130_fd_pr__pfet_g5v0d10v5 ad=0p pd=0u as=0p ps=0u w=4.38e+06u l=500000u
X173 D.t2541 G.t173 S.t4433 S.t91 sky130_fd_pr__pfet_g5v0d10v5 ad=0p pd=0u as=0p ps=0u w=4.38e+06u l=500000u
X174 S.t4432 G.t174 D.t2540 S.t187 sky130_fd_pr__pfet_g5v0d10v5 ad=0p pd=0u as=0p ps=0u w=4.38e+06u l=500000u
X175 S.t4431 G.t175 D.t2539 S.t366 sky130_fd_pr__pfet_g5v0d10v5 ad=0p pd=0u as=0p ps=0u w=4.38e+06u l=500000u
X176 S.t4430 G.t176 D.t2538 S.t70 sky130_fd_pr__pfet_g5v0d10v5 ad=0p pd=0u as=0p ps=0u w=4.38e+06u l=500000u
X177 S.t4429 G.t177 D.t2537 S.t9 sky130_fd_pr__pfet_g5v0d10v5 ad=0p pd=0u as=0p ps=0u w=4.38e+06u l=500000u
X178 S.t4428 G.t178 D.t2536 S.t321 sky130_fd_pr__pfet_g5v0d10v5 ad=0p pd=0u as=0p ps=0u w=4.38e+06u l=500000u
X179 D.t2535 G.t179 S.t4427 S.t139 sky130_fd_pr__pfet_g5v0d10v5 ad=0p pd=0u as=0p ps=0u w=4.38e+06u l=500000u
X180 S.t4426 G.t180 D.t2534 S.t158 sky130_fd_pr__pfet_g5v0d10v5 ad=0p pd=0u as=0p ps=0u w=4.38e+06u l=500000u
X181 D.t2533 G.t181 S.t4425 S.t4 sky130_fd_pr__pfet_g5v0d10v5 ad=0p pd=0u as=0p ps=0u w=4.38e+06u l=500000u
X182 D.t2532 G.t182 S.t4424 S.t43 sky130_fd_pr__pfet_g5v0d10v5 ad=0p pd=0u as=0p ps=0u w=4.38e+06u l=500000u
X183 S.t4423 G.t183 D.t2531 S.t209 sky130_fd_pr__pfet_g5v0d10v5 ad=0p pd=0u as=0p ps=0u w=4.38e+06u l=500000u
X184 D.t2530 G.t184 S.t4422 S.t79 sky130_fd_pr__pfet_g5v0d10v5 ad=0p pd=0u as=0p ps=0u w=4.38e+06u l=500000u
X185 S.t4421 G.t185 D.t2529 S.t122 sky130_fd_pr__pfet_g5v0d10v5 ad=0p pd=0u as=0p ps=0u w=4.38e+06u l=500000u
X186 D.t2528 G.t186 S.t4420 S.t216 sky130_fd_pr__pfet_g5v0d10v5 ad=0p pd=0u as=0p ps=0u w=4.38e+06u l=500000u
X187 S.t4419 G.t187 D.t2527 S.t35 sky130_fd_pr__pfet_g5v0d10v5 ad=0p pd=0u as=0p ps=0u w=4.38e+06u l=500000u
X188 S.t4418 G.t188 D.t2526 S.t70 sky130_fd_pr__pfet_g5v0d10v5 ad=0p pd=0u as=0p ps=0u w=4.38e+06u l=500000u
X189 D.t2525 G.t189 S.t4417 S.t29 sky130_fd_pr__pfet_g5v0d10v5 ad=0p pd=0u as=0p ps=0u w=4.38e+06u l=500000u
X190 S.t4416 G.t190 D.t2524 S.t172 sky130_fd_pr__pfet_g5v0d10v5 ad=0p pd=0u as=0p ps=0u w=4.38e+06u l=500000u
X191 D.t2523 G.t191 S.t4415 S.t23 sky130_fd_pr__pfet_g5v0d10v5 ad=0p pd=0u as=0p ps=0u w=4.38e+06u l=500000u
X192 D.t2070 G.t192 S.t4414 S.t406 sky130_fd_pr__pfet_g5v0d10v5 ad=0p pd=0u as=0p ps=0u w=4.38e+06u l=500000u
X193 D.t2069 G.t193 S.t4413 S.t174 sky130_fd_pr__pfet_g5v0d10v5 ad=0p pd=0u as=0p ps=0u w=4.38e+06u l=500000u
X194 D.t2068 G.t194 S.t4412 S.t64 sky130_fd_pr__pfet_g5v0d10v5 ad=0p pd=0u as=0p ps=0u w=4.38e+06u l=500000u
X195 D.t2067 G.t195 S.t4411 S.t198 sky130_fd_pr__pfet_g5v0d10v5 ad=0p pd=0u as=0p ps=0u w=4.38e+06u l=500000u
X196 S.t4410 G.t196 D.t2066 S.t176 sky130_fd_pr__pfet_g5v0d10v5 ad=0p pd=0u as=0p ps=0u w=4.38e+06u l=500000u
X197 D.t2065 G.t197 S.t4409 S.t25 sky130_fd_pr__pfet_g5v0d10v5 ad=0p pd=0u as=0p ps=0u w=4.38e+06u l=500000u
X198 D.t2064 G.t198 S.t4408 S.t56 sky130_fd_pr__pfet_g5v0d10v5 ad=0p pd=0u as=0p ps=0u w=4.38e+06u l=500000u
X199 D.t2063 G.t199 S.t4407 S.t167 sky130_fd_pr__pfet_g5v0d10v5 ad=0p pd=0u as=0p ps=0u w=4.38e+06u l=500000u
X200 S.t4406 G.t200 D.t2062 S.t163 sky130_fd_pr__pfet_g5v0d10v5 ad=0p pd=0u as=0p ps=0u w=4.38e+06u l=500000u
X201 D.t2061 G.t201 S.t4405 S.t332 sky130_fd_pr__pfet_g5v0d10v5 ad=0p pd=0u as=0p ps=0u w=4.38e+06u l=500000u
X202 S.t4404 G.t202 D.t2060 S.t330 sky130_fd_pr__pfet_g5v0d10v5 ad=0p pd=0u as=0p ps=0u w=4.38e+06u l=500000u
X203 D.t2059 G.t203 S.t4403 S.t45 sky130_fd_pr__pfet_g5v0d10v5 ad=0p pd=0u as=0p ps=0u w=4.38e+06u l=500000u
X204 D.t2058 G.t204 S.t4402 S.t109 sky130_fd_pr__pfet_g5v0d10v5 ad=0p pd=0u as=0p ps=0u w=4.38e+06u l=500000u
X205 D.t2057 G.t205 S.t4401 S.t143 sky130_fd_pr__pfet_g5v0d10v5 ad=0p pd=0u as=0p ps=0u w=4.38e+06u l=500000u
X206 D.t2056 G.t206 S.t4400 S.t97 sky130_fd_pr__pfet_g5v0d10v5 ad=0p pd=0u as=0p ps=0u w=4.38e+06u l=500000u
X207 D.t2055 G.t207 S.t4399 S.t150 sky130_fd_pr__pfet_g5v0d10v5 ad=0p pd=0u as=0p ps=0u w=4.38e+06u l=500000u
X208 S.t4398 G.t208 D.t2054 S.t176 sky130_fd_pr__pfet_g5v0d10v5 ad=0p pd=0u as=0p ps=0u w=4.38e+06u l=500000u
X209 D.t2053 G.t209 S.t4397 S.t198 sky130_fd_pr__pfet_g5v0d10v5 ad=0p pd=0u as=0p ps=0u w=4.38e+06u l=500000u
X210 D.t2052 G.t210 S.t4396 S.t262 sky130_fd_pr__pfet_g5v0d10v5 ad=0p pd=0u as=0p ps=0u w=4.38e+06u l=500000u
X211 S.t4395 G.t211 D.t2051 S.t141 sky130_fd_pr__pfet_g5v0d10v5 ad=0p pd=0u as=0p ps=0u w=4.38e+06u l=500000u
X212 D.t2050 G.t212 S.t4394 S.t134 sky130_fd_pr__pfet_g5v0d10v5 ad=0p pd=0u as=0p ps=0u w=4.38e+06u l=500000u
X213 S.t4393 G.t213 D.t2049 S.t167 sky130_fd_pr__pfet_g5v0d10v5 ad=0p pd=0u as=0p ps=0u w=4.38e+06u l=500000u
X214 D.t2048 G.t214 S.t4392 S.t332 sky130_fd_pr__pfet_g5v0d10v5 ad=0p pd=0u as=0p ps=0u w=4.38e+06u l=500000u
X215 D.t2047 G.t215 S.t4391 S.t100 sky130_fd_pr__pfet_g5v0d10v5 ad=0p pd=0u as=0p ps=0u w=4.38e+06u l=500000u
X216 D.t2046 G.t216 S.t4390 S.t16 sky130_fd_pr__pfet_g5v0d10v5 ad=0p pd=0u as=0p ps=0u w=4.38e+06u l=500000u
X217 S.t4389 G.t217 D.t779 S.t75 sky130_fd_pr__pfet_g5v0d10v5 ad=0p pd=0u as=0p ps=0u w=4.38e+06u l=500000u
X218 D.t778 G.t218 S.t4388 S.t14 sky130_fd_pr__pfet_g5v0d10v5 ad=0p pd=0u as=0p ps=0u w=4.38e+06u l=500000u
X219 D.t777 G.t219 S.t4387 S.t221 sky130_fd_pr__pfet_g5v0d10v5 ad=0p pd=0u as=0p ps=0u w=4.38e+06u l=500000u
X220 D.t776 G.t220 S.t4386 S.t231 sky130_fd_pr__pfet_g5v0d10v5 ad=0p pd=0u as=0p ps=0u w=4.38e+06u l=500000u
X221 S.t4385 G.t221 D.t775 S.t126 sky130_fd_pr__pfet_g5v0d10v5 ad=0p pd=0u as=0p ps=0u w=4.38e+06u l=500000u
X222 D.t774 G.t222 S.t4384 S.t9 sky130_fd_pr__pfet_g5v0d10v5 ad=0p pd=0u as=0p ps=0u w=4.38e+06u l=500000u
X223 S.t4383 G.t223 D.t773 S.t7 sky130_fd_pr__pfet_g5v0d10v5 ad=0p pd=0u as=0p ps=0u w=4.38e+06u l=500000u
X224 D.t772 G.t224 S.t4382 S.t105 sky130_fd_pr__pfet_g5v0d10v5 ad=0p pd=0u as=0p ps=0u w=4.38e+06u l=500000u
X225 S.t4381 G.t225 D.t771 S.t33 sky130_fd_pr__pfet_g5v0d10v5 ad=0p pd=0u as=0p ps=0u w=4.38e+06u l=500000u
X226 D.t770 G.t226 S.t4380 S.t4 sky130_fd_pr__pfet_g5v0d10v5 ad=0p pd=0u as=0p ps=0u w=4.38e+06u l=500000u
X227 D.t769 G.t227 S.t4379 S.t443 sky130_fd_pr__pfet_g5v0d10v5 ad=0p pd=0u as=0p ps=0u w=4.38e+06u l=500000u
X228 D.t768 G.t228 S.t4378 S.t0 sky130_fd_pr__pfet_g5v0d10v5 ad=0p pd=0u as=0p ps=0u w=4.38e+06u l=500000u
X229 D.t767 G.t229 S.t4377 S.t163 sky130_fd_pr__pfet_g5v0d10v5 ad=0p pd=0u as=0p ps=0u w=4.38e+06u l=500000u
X230 S.t4376 G.t230 D.t766 S.t158 sky130_fd_pr__pfet_g5v0d10v5 ad=0p pd=0u as=0p ps=0u w=4.38e+06u l=500000u
X231 D.t765 G.t231 S.t4375 S.t187 sky130_fd_pr__pfet_g5v0d10v5 ad=0p pd=0u as=0p ps=0u w=4.38e+06u l=500000u
X232 D.t764 G.t232 S.t4374 S.t2 sky130_fd_pr__pfet_g5v0d10v5 ad=0p pd=0u as=0p ps=0u w=4.38e+06u l=500000u
X233 D.t763 G.t233 S.t4373 S.t114 sky130_fd_pr__pfet_g5v0d10v5 ad=0p pd=0u as=0p ps=0u w=4.38e+06u l=500000u
X234 D.t762 G.t234 S.t4372 S.t64 sky130_fd_pr__pfet_g5v0d10v5 ad=0p pd=0u as=0p ps=0u w=4.38e+06u l=500000u
X235 D.t761 G.t235 S.t4371 S.t152 sky130_fd_pr__pfet_g5v0d10v5 ad=0p pd=0u as=0p ps=0u w=4.38e+06u l=500000u
X236 D.t760 G.t236 S.t4370 S.t218 sky130_fd_pr__pfet_g5v0d10v5 ad=0p pd=0u as=0p ps=0u w=4.38e+06u l=500000u
X237 S.t4369 G.t237 D.t759 S.t388 sky130_fd_pr__pfet_g5v0d10v5 ad=0p pd=0u as=0p ps=0u w=4.38e+06u l=500000u
X238 D.t717 G.t238 S.t4368 S.t218 sky130_fd_pr__pfet_g5v0d10v5 ad=0p pd=0u as=0p ps=0u w=4.38e+06u l=500000u
X239 S.t4367 G.t239 D.t716 S.t443 sky130_fd_pr__pfet_g5v0d10v5 ad=0p pd=0u as=0p ps=0u w=4.38e+06u l=500000u
X240 S.t4366 G.t240 D.t715 S.t14 sky130_fd_pr__pfet_g5v0d10v5 ad=0p pd=0u as=0p ps=0u w=4.38e+06u l=500000u
X241 D.t714 G.t241 S.t4365 S.t21 sky130_fd_pr__pfet_g5v0d10v5 ad=0p pd=0u as=0p ps=0u w=4.38e+06u l=500000u
X242 D.t713 G.t242 S.t4364 S.t23 sky130_fd_pr__pfet_g5v0d10v5 ad=0p pd=0u as=0p ps=0u w=4.38e+06u l=500000u
X243 D.t712 G.t243 S.t4363 S.t158 sky130_fd_pr__pfet_g5v0d10v5 ad=0p pd=0u as=0p ps=0u w=4.38e+06u l=500000u
X244 S.t4362 G.t244 D.t711 S.t209 sky130_fd_pr__pfet_g5v0d10v5 ad=0p pd=0u as=0p ps=0u w=4.38e+06u l=500000u
X245 S.t4361 G.t245 D.t710 S.t139 sky130_fd_pr__pfet_g5v0d10v5 ad=0p pd=0u as=0p ps=0u w=4.38e+06u l=500000u
X246 D.t709 G.t246 S.t4360 S.t193 sky130_fd_pr__pfet_g5v0d10v5 ad=0p pd=0u as=0p ps=0u w=4.38e+06u l=500000u
X247 D.t708 G.t247 S.t4359 S.t209 sky130_fd_pr__pfet_g5v0d10v5 ad=0p pd=0u as=0p ps=0u w=4.38e+06u l=500000u
X248 S.t4358 G.t248 D.t707 S.t357 sky130_fd_pr__pfet_g5v0d10v5 ad=0p pd=0u as=0p ps=0u w=4.38e+06u l=500000u
X249 D.t706 G.t249 S.t4357 S.t56 sky130_fd_pr__pfet_g5v0d10v5 ad=0p pd=0u as=0p ps=0u w=4.38e+06u l=500000u
X250 S.t4356 G.t250 D.t705 S.t181 sky130_fd_pr__pfet_g5v0d10v5 ad=0p pd=0u as=0p ps=0u w=4.38e+06u l=500000u
X251 D.t704 G.t251 S.t4355 S.t126 sky130_fd_pr__pfet_g5v0d10v5 ad=0p pd=0u as=0p ps=0u w=4.38e+06u l=500000u
X252 D.t703 G.t252 S.t4354 S.t79 sky130_fd_pr__pfet_g5v0d10v5 ad=0p pd=0u as=0p ps=0u w=4.38e+06u l=500000u
X253 D.t702 G.t253 S.t4353 S.t60 sky130_fd_pr__pfet_g5v0d10v5 ad=0p pd=0u as=0p ps=0u w=4.38e+06u l=500000u
X254 S.t4352 G.t254 D.t701 S.t97 sky130_fd_pr__pfet_g5v0d10v5 ad=0p pd=0u as=0p ps=0u w=4.38e+06u l=500000u
X255 D.t700 G.t255 S.t4351 S.t11 sky130_fd_pr__pfet_g5v0d10v5 ad=0p pd=0u as=0p ps=0u w=4.38e+06u l=500000u
X256 D.t699 G.t256 S.t4350 S.t0 sky130_fd_pr__pfet_g5v0d10v5 ad=0p pd=0u as=0p ps=0u w=4.38e+06u l=500000u
X257 S.t4349 G.t257 D.t698 S.t321 sky130_fd_pr__pfet_g5v0d10v5 ad=0p pd=0u as=0p ps=0u w=4.38e+06u l=500000u
X258 D.t64 G.t258 S.t4348 S.t97 sky130_fd_pr__pfet_g5v0d10v5 ad=0p pd=0u as=0p ps=0u w=4.38e+06u l=500000u
X259 D.t63 G.t259 S.t4347 S.t83 sky130_fd_pr__pfet_g5v0d10v5 ad=0p pd=0u as=0p ps=0u w=4.38e+06u l=500000u
X260 D.t62 G.t260 S.t4346 S.t116 sky130_fd_pr__pfet_g5v0d10v5 ad=0p pd=0u as=0p ps=0u w=4.38e+06u l=500000u
X261 D.t61 G.t261 S.t4345 S.t79 sky130_fd_pr__pfet_g5v0d10v5 ad=0p pd=0u as=0p ps=0u w=4.38e+06u l=500000u
X262 D.t60 G.t262 S.t4344 S.t75 sky130_fd_pr__pfet_g5v0d10v5 ad=0p pd=0u as=0p ps=0u w=4.38e+06u l=500000u
X263 S.t4343 G.t263 D.t59 S.t332 sky130_fd_pr__pfet_g5v0d10v5 ad=0p pd=0u as=0p ps=0u w=4.38e+06u l=500000u
X264 D.t58 G.t264 S.t4342 S.t216 sky130_fd_pr__pfet_g5v0d10v5 ad=0p pd=0u as=0p ps=0u w=4.38e+06u l=500000u
X265 D.t57 G.t265 S.t4341 S.t43 sky130_fd_pr__pfet_g5v0d10v5 ad=0p pd=0u as=0p ps=0u w=4.38e+06u l=500000u
X266 D.t56 G.t266 S.t4340 S.t163 sky130_fd_pr__pfet_g5v0d10v5 ad=0p pd=0u as=0p ps=0u w=4.38e+06u l=500000u
X267 D.t55 G.t267 S.t4339 S.t288 sky130_fd_pr__pfet_g5v0d10v5 ad=0p pd=0u as=0p ps=0u w=4.38e+06u l=500000u
X268 D.t54 G.t268 S.t4338 S.t73 sky130_fd_pr__pfet_g5v0d10v5 ad=0p pd=0u as=0p ps=0u w=4.38e+06u l=500000u
X269 S.t4337 G.t269 D.t53 S.t366 sky130_fd_pr__pfet_g5v0d10v5 ad=0p pd=0u as=0p ps=0u w=4.38e+06u l=500000u
X270 D.t52 G.t270 S.t4336 S.t64 sky130_fd_pr__pfet_g5v0d10v5 ad=0p pd=0u as=0p ps=0u w=4.38e+06u l=500000u
X271 S.t4335 G.t271 D.t51 S.t183 sky130_fd_pr__pfet_g5v0d10v5 ad=0p pd=0u as=0p ps=0u w=4.38e+06u l=500000u
X272 S.t4334 G.t272 D.t50 S.t37 sky130_fd_pr__pfet_g5v0d10v5 ad=0p pd=0u as=0p ps=0u w=4.38e+06u l=500000u
X273 D.t49 G.t273 S.t4333 S.t45 sky130_fd_pr__pfet_g5v0d10v5 ad=0p pd=0u as=0p ps=0u w=4.38e+06u l=500000u
X274 S.t4332 G.t274 D.t48 S.t56 sky130_fd_pr__pfet_g5v0d10v5 ad=0p pd=0u as=0p ps=0u w=4.38e+06u l=500000u