* NGSPICE file created from mag_files/POSTLAYOUT/power_stage_flat.ext - technology: sky130A

.subckt mag_files/POSTLAYOUT/power_stage_flat s1 s2 s3 s4 fc1 fc2 out VP VN
X0 fc1 s1 VP.t1350 VP.t126 sky130_fd_pr__pfet_g5v0d10v5 ad=2.7846 pd=18.84 as=6.8636 ps=16.6 w=4.38 l=0.5
X1 fc2.t390 s3 out fc2.t19 sky130_fd_pr__nfet_g5v0d10v5 ad=6.8636 pd=16.6 as=2.7846 ps=18.84 w=4.38 l=0.5
X2 fc1 s2 out fc1 sky130_fd_pr__pfet_g5v0d10v5 ad=6.2285 pd=16.31 as=2.0274 ps=14.09 w=4.38 l=0.5
X3 VP.t1349 s1 fc1 VP.t167 sky130_fd_pr__pfet_g5v0d10v5 ad=6.8636 pd=16.6 as=2.7846 ps=18.84 w=4.38 l=0.5
X4 fc1 s1 VP.t1348 VP.t24 sky130_fd_pr__pfet_g5v0d10v5 ad=2.7846 pd=18.84 as=6.8636 ps=16.6 w=4.38 l=0.5
X5 fc1 s2 out fc1 sky130_fd_pr__pfet_g5v0d10v5 ad=6.8636 pd=16.6 as=2.7846 ps=18.84 w=4.38 l=0.5
X6 fc1 s2 out fc1 sky130_fd_pr__pfet_g5v0d10v5 ad=6.8636 pd=16.6 as=2.7846 ps=18.84 w=4.38 l=0.5
X7 VN.t390 s4 fc2.t504 VN.t47 sky130_fd_pr__nfet_g5v0d10v5 ad=6.8636 pd=16.6 as=2.7846 ps=18.84 w=4.38 l=0.5
X8 fc1 s2 out fc1 sky130_fd_pr__pfet_g5v0d10v5 ad=6.8636 pd=16.6 as=2.7846 ps=18.84 w=4.38 l=0.5
X9 VP.t1347 s1 fc1 VP.t31 sky130_fd_pr__pfet_g5v0d10v5 ad=6.8636 pd=16.6 as=2.7846 ps=18.84 w=4.38 l=0.5
X10 fc1 s1 VP.t1346 VP.t53 sky130_fd_pr__pfet_g5v0d10v5 ad=2.7846 pd=18.84 as=6.8636 ps=16.6 w=4.38 l=0.5
X11 VP.t1345 s1 fc1 VP.t26 sky130_fd_pr__pfet_g5v0d10v5 ad=6.8636 pd=16.6 as=2.7846 ps=18.84 w=4.38 l=0.5
X12 fc2.t389 s3 out fc2.t12 sky130_fd_pr__nfet_g5v0d10v5 ad=6.8636 pd=16.6 as=2.0274 ps=14.09 w=4.38 l=0.5
X13 out s2 fc1 fc1 sky130_fd_pr__pfet_g5v0d10v5 ad=2.7846 pd=18.84 as=6.8636 ps=16.6 w=4.38 l=0.5
X14 out s3 fc2.t388 fc2.t43 sky130_fd_pr__nfet_g5v0d10v5 ad=2.7846 pd=18.84 as=6.8636 ps=16.6 w=4.38 l=0.5
X15 fc1 s1 VP.t1344 VP.t159 sky130_fd_pr__pfet_g5v0d10v5 ad=2.7846 pd=18.84 as=6.8636 ps=16.6 w=4.38 l=0.5
X16 fc1 s1 VP.t1343 VP.t28 sky130_fd_pr__pfet_g5v0d10v5 ad=2.7846 pd=18.84 as=6.8636 ps=16.6 w=4.38 l=0.5
X17 fc1 s2 out fc1 sky130_fd_pr__pfet_g5v0d10v5 ad=6.8636 pd=16.6 as=2.7846 ps=18.84 w=4.38 l=0.5
X18 fc1 s2 out fc1 sky130_fd_pr__pfet_g5v0d10v5 ad=6.8636 pd=16.6 as=2.7846 ps=18.84 w=4.38 l=0.5
X19 fc1 s1 VP.t1342 VP.t12 sky130_fd_pr__pfet_g5v0d10v5 ad=2.7846 pd=18.84 as=6.8636 ps=16.6 w=4.38 l=0.5
X20 fc1 s1 VP.t1341 VP.t156 sky130_fd_pr__pfet_g5v0d10v5 ad=2.7846 pd=18.84 as=6.8636 ps=16.6 w=4.38 l=0.5
X21 fc1 s2 out fc1 sky130_fd_pr__pfet_g5v0d10v5 ad=6.8636 pd=16.6 as=2.7846 ps=18.84 w=4.38 l=0.5
X22 fc1 s2 out fc1 sky130_fd_pr__pfet_g5v0d10v5 ad=6.8636 pd=16.6 as=2.0274 ps=14.09 w=4.38 l=0.5
X23 fc1 s1 VP.t1340 VP.t22 sky130_fd_pr__pfet_g5v0d10v5 ad=2.7846 pd=18.84 as=6.8636 ps=16.6 w=4.38 l=0.5
X24 VP.t1339 s1 fc1 VP.t4 sky130_fd_pr__pfet_g5v0d10v5 ad=6.2285 pd=16.31 as=2.0274 ps=14.09 w=4.38 l=0.5
X25 fc2.t387 s3 out fc2.t41 sky130_fd_pr__nfet_g5v0d10v5 ad=6.8636 pd=16.6 as=2.7846 ps=18.84 w=4.38 l=0.5
X26 out s2 fc1 fc1 sky130_fd_pr__pfet_g5v0d10v5 ad=2.7846 pd=18.84 as=6.8636 ps=16.6 w=4.38 l=0.5
X27 fc1 s2 out fc1 sky130_fd_pr__pfet_g5v0d10v5 ad=6.8636 pd=16.6 as=2.7846 ps=18.84 w=4.38 l=0.5
X28 fc1 s1 VP.t1338 VP.t45 sky130_fd_pr__pfet_g5v0d10v5 ad=2.7846 pd=18.84 as=6.8636 ps=16.6 w=4.38 l=0.5
X29 out s2 fc1 fc1 sky130_fd_pr__pfet_g5v0d10v5 ad=2.0274 pd=14.09 as=6.2285 ps=16.31 w=4.38 l=0.5
X30 fc1 s1 VP.t1337 VP.t207 sky130_fd_pr__pfet_g5v0d10v5 ad=2.7846 pd=18.84 as=6.8636 ps=16.6 w=4.38 l=0.5
X31 VP.t1336 s1 fc1 VP.t111 sky130_fd_pr__pfet_g5v0d10v5 ad=6.8636 pd=16.6 as=2.7846 ps=18.84 w=4.38 l=0.5
X32 out s2 fc1 fc1 sky130_fd_pr__pfet_g5v0d10v5 ad=2.0274 pd=14.09 as=6.2285 ps=16.31 w=4.38 l=0.5
X33 out s2 fc1 fc1 sky130_fd_pr__pfet_g5v0d10v5 ad=2.7846 pd=18.84 as=6.8636 ps=16.6 w=4.38 l=0.5
X34 VP.t1335 s1 fc1 VP.t200 sky130_fd_pr__pfet_g5v0d10v5 ad=6.2285 pd=16.31 as=2.0274 ps=14.09 w=4.38 l=0.5
X35 fc1 s1 VP.t1334 VP.t16 sky130_fd_pr__pfet_g5v0d10v5 ad=2.7846 pd=18.84 as=6.8636 ps=16.6 w=4.38 l=0.5
X36 out s2 fc1 fc1 sky130_fd_pr__pfet_g5v0d10v5 ad=2.7846 pd=18.84 as=6.8636 ps=16.6 w=4.38 l=0.5
X37 fc2.t386 s3 out fc2.t38 sky130_fd_pr__nfet_g5v0d10v5 ad=6.8636 pd=16.6 as=2.7846 ps=18.84 w=4.38 l=0.5
X38 fc1 s1 VP.t1333 VP.t10 sky130_fd_pr__pfet_g5v0d10v5 ad=2.7846 pd=18.84 as=6.8636 ps=16.6 w=4.38 l=0.5
X39 VN.t389 s4 fc2.t656 VN.t15 sky130_fd_pr__nfet_g5v0d10v5 ad=6.8636 pd=16.6 as=2.7846 ps=18.84 w=4.38 l=0.5
X40 out s3 fc2.t385 fc2.t2 sky130_fd_pr__nfet_g5v0d10v5 ad=2.7846 pd=18.84 as=6.8636 ps=16.6 w=4.38 l=0.5
X41 out s2 fc1 fc1 sky130_fd_pr__pfet_g5v0d10v5 ad=2.7846 pd=18.84 as=6.8636 ps=16.6 w=4.38 l=0.5
X42 fc1 s2 out fc1 sky130_fd_pr__pfet_g5v0d10v5 ad=6.8636 pd=16.6 as=2.7846 ps=18.84 w=4.38 l=0.5
X43 fc1 s2 out fc1 sky130_fd_pr__pfet_g5v0d10v5 ad=6.8636 pd=16.6 as=2.7846 ps=18.84 w=4.38 l=0.5
X44 fc1 s1 VP.t1332 VP.t20 sky130_fd_pr__pfet_g5v0d10v5 ad=2.7846 pd=18.84 as=6.8636 ps=16.6 w=4.38 l=0.5
X45 VN.t388 s4 fc2.t468 VN.t0 sky130_fd_pr__nfet_g5v0d10v5 ad=6.2285 pd=16.31 as=2.7846 ps=18.84 w=4.38 l=0.5
X46 VN.t387 s4 fc2.t537 VN.t11 sky130_fd_pr__nfet_g5v0d10v5 ad=6.8636 pd=16.6 as=2.7846 ps=18.84 w=4.38 l=0.5
X47 VP.t1331 s1 fc1 VP.t0 sky130_fd_pr__pfet_g5v0d10v5 ad=6.8636 pd=16.6 as=2.7846 ps=18.84 w=4.38 l=0.5
X48 VP.t1330 s1 fc1 VP.t53 sky130_fd_pr__pfet_g5v0d10v5 ad=6.8636 pd=16.6 as=2.7846 ps=18.84 w=4.38 l=0.5
X49 VP.t1329 s1 fc1 VP.t143 sky130_fd_pr__pfet_g5v0d10v5 ad=6.8636 pd=16.6 as=2.7846 ps=18.84 w=4.38 l=0.5
X50 VP.t1328 s1 fc1 VP.t140 sky130_fd_pr__pfet_g5v0d10v5 ad=6.8636 pd=16.6 as=2.7846 ps=18.84 w=4.38 l=0.5
X51 out s2 fc1 fc1 sky130_fd_pr__pfet_g5v0d10v5 ad=2.7846 pd=18.84 as=6.8636 ps=16.6 w=4.38 l=0.5
X52 out s2 fc1 fc1 sky130_fd_pr__pfet_g5v0d10v5 ad=2.7846 pd=18.84 as=6.8636 ps=16.6 w=4.38 l=0.5
X53 fc1 s1 VP.t1327 VP.t200 sky130_fd_pr__pfet_g5v0d10v5 ad=2.7846 pd=18.84 as=6.8636 ps=16.6 w=4.38 l=0.5
X54 VP.t1326 s1 fc1 VP.t136 sky130_fd_pr__pfet_g5v0d10v5 ad=6.8636 pd=16.6 as=2.7846 ps=18.84 w=4.38 l=0.5
X55 VP.t1325 s1 fc1 VP.t34 sky130_fd_pr__pfet_g5v0d10v5 ad=6.8636 pd=16.6 as=2.7846 ps=18.84 w=4.38 l=0.5
X56 out s3 fc2.t384 fc2.t56 sky130_fd_pr__nfet_g5v0d10v5 ad=2.0274 pd=14.09 as=6.2285 ps=16.31 w=4.38 l=0.5
X57 fc1 s2 out fc1 sky130_fd_pr__pfet_g5v0d10v5 ad=6.8636 pd=16.6 as=2.7846 ps=18.84 w=4.38 l=0.5
X58 out s2 fc1 fc1 sky130_fd_pr__pfet_g5v0d10v5 ad=2.7846 pd=18.84 as=6.8636 ps=16.6 w=4.38 l=0.5
X59 out s2 fc1 fc1 sky130_fd_pr__pfet_g5v0d10v5 ad=2.7846 pd=18.84 as=6.8636 ps=16.6 w=4.38 l=0.5
X60 fc2.t383 s3 out fc2.t34 sky130_fd_pr__nfet_g5v0d10v5 ad=6.8636 pd=16.6 as=2.7846 ps=18.84 w=4.38 l=0.5
X61 VN.t386 s4 fc2.t568 VN.t5 sky130_fd_pr__nfet_g5v0d10v5 ad=6.8636 pd=16.6 as=2.7846 ps=18.84 w=4.38 l=0.5
X62 VP.t1324 s1 fc1 VP.t195 sky130_fd_pr__pfet_g5v0d10v5 ad=6.8636 pd=16.6 as=2.7846 ps=18.84 w=4.38 l=0.5
X63 fc1 s1 VP.t1323 VP.t186 sky130_fd_pr__pfet_g5v0d10v5 ad=2.0274 pd=14.09 as=6.2285 ps=16.31 w=4.38 l=0.5
X64 VP.t1322 s1 fc1 VP.t153 sky130_fd_pr__pfet_g5v0d10v5 ad=6.8636 pd=16.6 as=2.7846 ps=18.84 w=4.38 l=0.5
X65 fc1 s2 out fc1 sky130_fd_pr__pfet_g5v0d10v5 ad=6.8636 pd=16.6 as=2.7846 ps=18.84 w=4.38 l=0.5
X66 fc1 s2 out fc1 sky130_fd_pr__pfet_g5v0d10v5 ad=6.8636 pd=16.6 as=2.7846 ps=18.84 w=4.38 l=0.5
X67 out s2 fc1 fc1 sky130_fd_pr__pfet_g5v0d10v5 ad=2.7846 pd=18.84 as=6.8636 ps=16.6 w=4.38 l=0.5
X68 VP.t1321 s1 fc1 VP.t26 sky130_fd_pr__pfet_g5v0d10v5 ad=6.8636 pd=16.6 as=2.7846 ps=18.84 w=4.38 l=0.5
X69 fc2.t382 s3 out fc2.t12 sky130_fd_pr__nfet_g5v0d10v5 ad=6.8636 pd=16.6 as=2.7846 ps=18.84 w=4.38 l=0.5
X70 VP.t1320 s1 fc1 VP.t45 sky130_fd_pr__pfet_g5v0d10v5 ad=6.8636 pd=16.6 as=2.7846 ps=18.84 w=4.38 l=0.5
X71 fc1 s1 VP.t1319 VP.t12 sky130_fd_pr__pfet_g5v0d10v5 ad=2.7846 pd=18.84 as=6.8636 ps=16.6 w=4.38 l=0.5
X72 fc2.t538 s4 VN.t385 VN.t11 sky130_fd_pr__nfet_g5v0d10v5 ad=2.7846 pd=18.84 as=6.8636 ps=16.6 w=4.38 l=0.5
X73 out s2 fc1 fc1 sky130_fd_pr__pfet_g5v0d10v5 ad=2.7846 pd=18.84 as=6.2285 ps=16.31 w=4.38 l=0.5
X74 VP.t1318 s1 fc1 VP.t200 sky130_fd_pr__pfet_g5v0d10v5 ad=6.8636 pd=16.6 as=2.7846 ps=18.84 w=4.38 l=0.5
X75 fc1 s2 out fc1 sky130_fd_pr__pfet_g5v0d10v5 ad=6.8636 pd=16.6 as=2.7846 ps=18.84 w=4.38 l=0.5
X76 out s2 fc1 fc1 sky130_fd_pr__pfet_g5v0d10v5 ad=2.7846 pd=18.84 as=6.8636 ps=16.6 w=4.38 l=0.5
X77 fc1 s1 VP.t1317 VP.t8 sky130_fd_pr__pfet_g5v0d10v5 ad=2.0274 pd=14.09 as=6.2285 ps=16.31 w=4.38 l=0.5
X78 out s2 fc1 fc1 sky130_fd_pr__pfet_g5v0d10v5 ad=2.7846 pd=18.84 as=6.8636 ps=16.6 w=4.38 l=0.5
X79 fc1 s2 out fc1 sky130_fd_pr__pfet_g5v0d10v5 ad=6.8636 pd=16.6 as=2.7846 ps=18.84 w=4.38 l=0.5
X80 fc1 s2 out fc1 sky130_fd_pr__pfet_g5v0d10v5 ad=6.8636 pd=16.6 as=2.7846 ps=18.84 w=4.38 l=0.5
X81 fc2.t613 s4 VN.t384 VN.t100 sky130_fd_pr__nfet_g5v0d10v5 ad=2.0274 pd=14.09 as=6.2285 ps=16.31 w=4.38 l=0.5
X82 fc1 s1 VP.t1316 VP.t4 sky130_fd_pr__pfet_g5v0d10v5 ad=2.7846 pd=18.84 as=6.8636 ps=16.6 w=4.38 l=0.5
X83 fc1 s2 out fc1 sky130_fd_pr__pfet_g5v0d10v5 ad=6.8636 pd=16.6 as=2.7846 ps=18.84 w=4.38 l=0.5
X84 out s2 fc1 fc1 sky130_fd_pr__pfet_g5v0d10v5 ad=2.7846 pd=18.84 as=6.8636 ps=16.6 w=4.38 l=0.5
X85 VP.t1315 s1 fc1 VP.t147 sky130_fd_pr__pfet_g5v0d10v5 ad=6.2285 pd=16.31 as=2.7846 ps=18.84 w=4.38 l=0.5
X86 VP.t1314 s1 fc1 VP.t20 sky130_fd_pr__pfet_g5v0d10v5 ad=6.8636 pd=16.6 as=2.7846 ps=18.84 w=4.38 l=0.5
X87 VP.t1313 s1 fc1 VP.t186 sky130_fd_pr__pfet_g5v0d10v5 ad=6.8636 pd=16.6 as=2.7846 ps=18.84 w=4.38 l=0.5
X88 fc1 s2 out fc1 sky130_fd_pr__pfet_g5v0d10v5 ad=6.8636 pd=16.6 as=2.7846 ps=18.84 w=4.38 l=0.5
X89 VP.t1312 s1 fc1 VP.t14 sky130_fd_pr__pfet_g5v0d10v5 ad=6.8636 pd=16.6 as=2.7846 ps=18.84 w=4.38 l=0.5
X90 fc1 s2 out fc1 sky130_fd_pr__pfet_g5v0d10v5 ad=6.8636 pd=16.6 as=2.7846 ps=18.84 w=4.38 l=0.5
X91 fc2.t381 s3 out fc2.t6 sky130_fd_pr__nfet_g5v0d10v5 ad=6.8636 pd=16.6 as=2.7846 ps=18.84 w=4.38 l=0.5
X92 VP.t1311 s1 fc1 VP.t169 sky130_fd_pr__pfet_g5v0d10v5 ad=6.2285 pd=16.31 as=2.7846 ps=18.84 w=4.38 l=0.5
X93 fc1 s1 VP.t1310 VP.t167 sky130_fd_pr__pfet_g5v0d10v5 ad=2.7846 pd=18.84 as=6.8636 ps=16.6 w=4.38 l=0.5
X94 fc1 s1 VP.t1309 VP.t34 sky130_fd_pr__pfet_g5v0d10v5 ad=2.7846 pd=18.84 as=6.8636 ps=16.6 w=4.38 l=0.5
X95 fc1 s1 VP.t1308 VP.t134 sky130_fd_pr__pfet_g5v0d10v5 ad=2.7846 pd=18.84 as=6.8636 ps=16.6 w=4.38 l=0.5
X96 out s2 fc1 fc1 sky130_fd_pr__pfet_g5v0d10v5 ad=2.7846 pd=18.84 as=6.8636 ps=16.6 w=4.38 l=0.5
X97 out s2 fc1 fc1 sky130_fd_pr__pfet_g5v0d10v5 ad=2.7846 pd=18.84 as=6.8636 ps=16.6 w=4.38 l=0.5
X98 VP.t1307 s1 fc1 VP.t53 sky130_fd_pr__pfet_g5v0d10v5 ad=6.8636 pd=16.6 as=2.7846 ps=18.84 w=4.38 l=0.5
X99 fc1 s2 out fc1 sky130_fd_pr__pfet_g5v0d10v5 ad=6.8636 pd=16.6 as=2.7846 ps=18.84 w=4.38 l=0.5
X100 fc1 s2 out fc1 sky130_fd_pr__pfet_g5v0d10v5 ad=6.8636 pd=16.6 as=2.7846 ps=18.84 w=4.38 l=0.5
X101 fc1 s1 VP.t1306 VP.t131 sky130_fd_pr__pfet_g5v0d10v5 ad=2.7846 pd=18.84 as=6.8636 ps=16.6 w=4.38 l=0.5
X102 fc1 s2 out fc1 sky130_fd_pr__pfet_g5v0d10v5 ad=6.8636 pd=16.6 as=2.0274 ps=14.09 w=4.38 l=0.5
X103 out s2 fc1 fc1 sky130_fd_pr__pfet_g5v0d10v5 ad=2.7846 pd=18.84 as=6.8636 ps=16.6 w=4.38 l=0.5
X104 fc1 s1 VP.t1305 VP.t186 sky130_fd_pr__pfet_g5v0d10v5 ad=2.7846 pd=18.84 as=6.8636 ps=16.6 w=4.38 l=0.5
X105 fc2.t380 s3 out fc2.t0 sky130_fd_pr__nfet_g5v0d10v5 ad=6.8636 pd=16.6 as=2.7846 ps=18.84 w=4.38 l=0.5
X106 VP.t1304 s1 fc1 VP.t159 sky130_fd_pr__pfet_g5v0d10v5 ad=6.8636 pd=16.6 as=2.7846 ps=18.84 w=4.38 l=0.5
X107 fc1 s1 VP.t1303 VP.t126 sky130_fd_pr__pfet_g5v0d10v5 ad=2.7846 pd=18.84 as=6.8636 ps=16.6 w=4.38 l=0.5
X108 out s2 fc1 fc1 sky130_fd_pr__pfet_g5v0d10v5 ad=2.7846 pd=18.84 as=6.8636 ps=16.6 w=4.38 l=0.5
X109 fc1 s1 VP.t1302 VP.t169 sky130_fd_pr__pfet_g5v0d10v5 ad=2.7846 pd=18.84 as=6.8636 ps=16.6 w=4.38 l=0.5
X110 fc1 s2 out fc1 sky130_fd_pr__pfet_g5v0d10v5 ad=6.8636 pd=16.6 as=2.7846 ps=18.84 w=4.38 l=0.5
X111 out s3 fc2.t379 fc2.t28 sky130_fd_pr__nfet_g5v0d10v5 ad=2.7846 pd=18.84 as=6.8636 ps=16.6 w=4.38 l=0.5
X112 fc1 s2 out fc1 sky130_fd_pr__pfet_g5v0d10v5 ad=6.8636 pd=16.6 as=2.7846 ps=18.84 w=4.38 l=0.5
X113 fc1 s1 VP.t1301 VP.t122 sky130_fd_pr__pfet_g5v0d10v5 ad=2.7846 pd=18.84 as=6.8636 ps=16.6 w=4.38 l=0.5
X114 out s3 fc2.t378 fc2.t26 sky130_fd_pr__nfet_g5v0d10v5 ad=2.7846 pd=18.84 as=6.8636 ps=16.6 w=4.38 l=0.5
X115 out s2 fc1 fc1 sky130_fd_pr__pfet_g5v0d10v5 ad=2.7846 pd=18.84 as=6.8636 ps=16.6 w=4.38 l=0.5
X116 VN.t383 s4 fc2.t634 VN.t22 sky130_fd_pr__nfet_g5v0d10v5 ad=6.8636 pd=16.6 as=2.7846 ps=18.84 w=4.38 l=0.5
X117 VP.t1300 s1 fc1 VP.t45 sky130_fd_pr__pfet_g5v0d10v5 ad=6.8636 pd=16.6 as=2.7846 ps=18.84 w=4.38 l=0.5
X118 fc1 s2 out fc1 sky130_fd_pr__pfet_g5v0d10v5 ad=6.2285 pd=16.31 as=2.0274 ps=14.09 w=4.38 l=0.5
X119 fc2.t734 s4 VN.t382 VN.t22 sky130_fd_pr__nfet_g5v0d10v5 ad=2.7846 pd=18.84 as=6.8636 ps=16.6 w=4.38 l=0.5
X120 out s3 fc2.t377 fc2.t43 sky130_fd_pr__nfet_g5v0d10v5 ad=2.7846 pd=18.84 as=6.8636 ps=16.6 w=4.38 l=0.5
X121 VP.t1299 s1 fc1 VP.t207 sky130_fd_pr__pfet_g5v0d10v5 ad=6.8636 pd=16.6 as=2.7846 ps=18.84 w=4.38 l=0.5
X122 fc1 s2 out fc1 sky130_fd_pr__pfet_g5v0d10v5 ad=6.8636 pd=16.6 as=2.7846 ps=18.84 w=4.38 l=0.5
X123 fc1 s1 VP.t1298 VP.t98 sky130_fd_pr__pfet_g5v0d10v5 ad=2.7846 pd=18.84 as=6.8636 ps=16.6 w=4.38 l=0.5
X124 VP.t1297 s1 fc1 VP.t119 sky130_fd_pr__pfet_g5v0d10v5 ad=6.8636 pd=16.6 as=2.7846 ps=18.84 w=4.38 l=0.5
X125 out s2 fc1 fc1 sky130_fd_pr__pfet_g5v0d10v5 ad=2.0274 pd=14.09 as=6.8636 ps=16.6 w=4.38 l=0.5
X126 fc1 s1 VP.t1296 VP.t12 sky130_fd_pr__pfet_g5v0d10v5 ad=2.7846 pd=18.84 as=6.8636 ps=16.6 w=4.38 l=0.5
X127 out s2 fc1 fc1 sky130_fd_pr__pfet_g5v0d10v5 ad=2.7846 pd=18.84 as=6.8636 ps=16.6 w=4.38 l=0.5
X128 fc1 s1 VP.t1295 VP.t156 sky130_fd_pr__pfet_g5v0d10v5 ad=2.7846 pd=18.84 as=6.8636 ps=16.6 w=4.38 l=0.5
X129 VP.t1294 s1 fc1 VP.t169 sky130_fd_pr__pfet_g5v0d10v5 ad=6.8636 pd=16.6 as=2.0274 ps=14.09 w=4.38 l=0.5
X130 out s2 fc1 fc1 sky130_fd_pr__pfet_g5v0d10v5 ad=2.7846 pd=18.84 as=6.8636 ps=16.6 w=4.38 l=0.5
X131 VN.t381 s4 fc2.t526 VN.t81 sky130_fd_pr__nfet_g5v0d10v5 ad=6.2285 pd=16.31 as=2.0274 ps=14.09 w=4.38 l=0.5
X132 fc2.t609 s4 VN.t380 VN.t11 sky130_fd_pr__nfet_g5v0d10v5 ad=2.7846 pd=18.84 as=6.2285 ps=16.31 w=4.38 l=0.5
X133 out s2 fc1 fc1 sky130_fd_pr__pfet_g5v0d10v5 ad=2.7846 pd=18.84 as=6.8636 ps=16.6 w=4.38 l=0.5
X134 out s2 fc1 fc1 sky130_fd_pr__pfet_g5v0d10v5 ad=2.0274 pd=14.09 as=6.2285 ps=16.31 w=4.38 l=0.5
X135 out s2 fc1 fc1 sky130_fd_pr__pfet_g5v0d10v5 ad=2.0274 pd=14.09 as=6.2285 ps=16.31 w=4.38 l=0.5
X136 out s2 fc1 fc1 sky130_fd_pr__pfet_g5v0d10v5 ad=2.0274 pd=14.09 as=6.8636 ps=16.6 w=4.38 l=0.5
X137 fc1 s1 VP.t1293 VP.t140 sky130_fd_pr__pfet_g5v0d10v5 ad=2.7846 pd=18.84 as=6.8636 ps=16.6 w=4.38 l=0.5
X138 VP.t1292 s1 fc1 VP.t147 sky130_fd_pr__pfet_g5v0d10v5 ad=6.2285 pd=16.31 as=2.7846 ps=18.84 w=4.38 l=0.5
X139 VP.t1291 s1 fc1 VP.t111 sky130_fd_pr__pfet_g5v0d10v5 ad=6.8636 pd=16.6 as=2.7846 ps=18.84 w=4.38 l=0.5
X140 fc1 s2 out fc1 sky130_fd_pr__pfet_g5v0d10v5 ad=6.8636 pd=16.6 as=2.7846 ps=18.84 w=4.38 l=0.5
X141 fc2.t376 s3 out fc2.t23 sky130_fd_pr__nfet_g5v0d10v5 ad=6.8636 pd=16.6 as=2.7846 ps=18.84 w=4.38 l=0.5
X142 out s2 fc1 fc1 sky130_fd_pr__pfet_g5v0d10v5 ad=2.7846 pd=18.84 as=6.8636 ps=16.6 w=4.38 l=0.5
X143 out s2 fc1 fc1 sky130_fd_pr__pfet_g5v0d10v5 ad=2.7846 pd=18.84 as=6.8636 ps=16.6 w=4.38 l=0.5
X144 fc1 s1 VP.t1290 VP.t34 sky130_fd_pr__pfet_g5v0d10v5 ad=2.7846 pd=18.84 as=6.8636 ps=16.6 w=4.38 l=0.5
X145 fc2.t375 s3 out fc2.t38 sky130_fd_pr__nfet_g5v0d10v5 ad=6.8636 pd=16.6 as=2.7846 ps=18.84 w=4.38 l=0.5
X146 fc2.t374 s3 out fc2.t21 sky130_fd_pr__nfet_g5v0d10v5 ad=6.8636 pd=16.6 as=2.0274 ps=14.09 w=4.38 l=0.5
X147 VP.t1289 s1 fc1 VP.t105 sky130_fd_pr__pfet_g5v0d10v5 ad=6.8636 pd=16.6 as=2.7846 ps=18.84 w=4.38 l=0.5
X148 fc2.t529 s4 VN.t379 VN.t5 sky130_fd_pr__nfet_g5v0d10v5 ad=2.7846 pd=18.84 as=6.2285 ps=16.31 w=4.38 l=0.5
X149 out s2 fc1 fc1 sky130_fd_pr__pfet_g5v0d10v5 ad=2.7846 pd=18.84 as=6.8636 ps=16.6 w=4.38 l=0.5
X150 VP.t1288 s1 fc1 VP.t91 sky130_fd_pr__pfet_g5v0d10v5 ad=6.8636 pd=16.6 as=2.7846 ps=18.84 w=4.38 l=0.5
X151 fc1 s1 VP.t1287 VP.t195 sky130_fd_pr__pfet_g5v0d10v5 ad=2.7846 pd=18.84 as=6.8636 ps=16.6 w=4.38 l=0.5
X152 fc2.t559 s4 VN.t378 VN.t50 sky130_fd_pr__nfet_g5v0d10v5 ad=2.7846 pd=18.84 as=6.8636 ps=16.6 w=4.38 l=0.5
X153 VP.t1286 s1 fc1 VP.t143 sky130_fd_pr__pfet_g5v0d10v5 ad=6.8636 pd=16.6 as=2.7846 ps=18.84 w=4.38 l=0.5
X154 out s2 fc1 fc1 sky130_fd_pr__pfet_g5v0d10v5 ad=2.7846 pd=18.84 as=6.8636 ps=16.6 w=4.38 l=0.5
X155 fc1 s2 out fc1 sky130_fd_pr__pfet_g5v0d10v5 ad=6.8636 pd=16.6 as=2.7846 ps=18.84 w=4.38 l=0.5
X156 VP.t1285 s1 fc1 VP.t53 sky130_fd_pr__pfet_g5v0d10v5 ad=6.8636 pd=16.6 as=2.7846 ps=18.84 w=4.38 l=0.5
X157 fc1 s2 out fc1 sky130_fd_pr__pfet_g5v0d10v5 ad=6.8636 pd=16.6 as=2.7846 ps=18.84 w=4.38 l=0.5
X158 out s2 fc1 fc1 sky130_fd_pr__pfet_g5v0d10v5 ad=2.7846 pd=18.84 as=6.8636 ps=16.6 w=4.38 l=0.5
X159 fc2.t745 s4 VN.t377 VN.t52 sky130_fd_pr__nfet_g5v0d10v5 ad=1.3312 pd=9.38 as=6.2285 ps=16.31 w=4.38 l=0.5
X160 out s3 fc2.t373 fc2.t62 sky130_fd_pr__nfet_g5v0d10v5 ad=2.0274 pd=14.09 as=6.8636 ps=16.6 w=4.38 l=0.5
X161 fc1 s2 out fc1 sky130_fd_pr__pfet_g5v0d10v5 ad=6.8636 pd=16.6 as=2.7846 ps=18.84 w=4.38 l=0.5
X162 VP.t1284 s1 fc1 VP.t136 sky130_fd_pr__pfet_g5v0d10v5 ad=6.8636 pd=16.6 as=2.7846 ps=18.84 w=4.38 l=0.5
X163 VN.t376 s4 fc2.t744 VN.t91 sky130_fd_pr__nfet_g5v0d10v5 ad=6.8636 pd=16.6 as=2.7846 ps=18.84 w=4.38 l=0.5
X164 fc2.t372 s3 out fc2.t16 sky130_fd_pr__nfet_g5v0d10v5 ad=6.8636 pd=16.6 as=2.7846 ps=18.84 w=4.38 l=0.5
X165 fc1 s2 out fc1 sky130_fd_pr__pfet_g5v0d10v5 ad=6.8636 pd=16.6 as=2.7846 ps=18.84 w=4.38 l=0.5
X166 fc1 s1 VP.t1283 VP.t98 sky130_fd_pr__pfet_g5v0d10v5 ad=2.0274 pd=14.09 as=6.2285 ps=16.31 w=4.38 l=0.5
X167 out s2 fc1 fc1 sky130_fd_pr__pfet_g5v0d10v5 ad=2.7846 pd=18.84 as=6.8636 ps=16.6 w=4.38 l=0.5
X168 out s2 fc1 fc1 sky130_fd_pr__pfet_g5v0d10v5 ad=2.7846 pd=18.84 as=6.8636 ps=16.6 w=4.38 l=0.5
X169 VN.t375 s4 fc2.t576 VN.t93 sky130_fd_pr__nfet_g5v0d10v5 ad=6.8636 pd=16.6 as=2.7846 ps=18.84 w=4.38 l=0.5
X170 fc2.t371 s3 out fc2.t34 sky130_fd_pr__nfet_g5v0d10v5 ad=6.8636 pd=16.6 as=2.7846 ps=18.84 w=4.38 l=0.5
X171 fc1 s1 VP.t1282 VP.t49 sky130_fd_pr__pfet_g5v0d10v5 ad=2.7846 pd=18.84 as=6.8636 ps=16.6 w=4.38 l=0.5
X172 fc1 s2 out fc1 sky130_fd_pr__pfet_g5v0d10v5 ad=6.8636 pd=16.6 as=2.7846 ps=18.84 w=4.38 l=0.5
X173 fc1 s2 out fc1 sky130_fd_pr__pfet_g5v0d10v5 ad=6.8636 pd=16.6 as=2.7846 ps=18.84 w=4.38 l=0.5
X174 VP.t1281 s1 fc1 VP.t80 sky130_fd_pr__pfet_g5v0d10v5 ad=6.8636 pd=16.6 as=2.7846 ps=18.84 w=4.38 l=0.5
X175 fc1 s1 VP.t1280 VP.t122 sky130_fd_pr__pfet_g5v0d10v5 ad=2.7846 pd=18.84 as=6.8636 ps=16.6 w=4.38 l=0.5
X176 VP.t1279 s1 fc1 VP.t153 sky130_fd_pr__pfet_g5v0d10v5 ad=6.8636 pd=16.6 as=2.7846 ps=18.84 w=4.38 l=0.5
X177 fc2.t575 s4 VN.t374 VN.t17 sky130_fd_pr__nfet_g5v0d10v5 ad=2.7846 pd=18.84 as=6.8636 ps=16.6 w=4.38 l=0.5
X178 fc1 s2 out fc1 sky130_fd_pr__pfet_g5v0d10v5 ad=6.8636 pd=16.6 as=2.7846 ps=18.84 w=4.38 l=0.5
X179 fc1 s2 out fc1 sky130_fd_pr__pfet_g5v0d10v5 ad=6.8636 pd=16.6 as=2.7846 ps=18.84 w=4.38 l=0.5
X180 VP.t1278 s1 fc1 VP.t45 sky130_fd_pr__pfet_g5v0d10v5 ad=6.8636 pd=16.6 as=2.7846 ps=18.84 w=4.38 l=0.5
X181 out s2 fc1 fc1 sky130_fd_pr__pfet_g5v0d10v5 ad=2.7846 pd=18.84 as=6.8636 ps=16.6 w=4.38 l=0.5
X182 fc1 s2 out fc1 sky130_fd_pr__pfet_g5v0d10v5 ad=6.8636 pd=16.6 as=2.7846 ps=18.84 w=4.38 l=0.5
X183 fc1 s1 VP.t1277 VP.t76 sky130_fd_pr__pfet_g5v0d10v5 ad=2.7846 pd=18.84 as=6.8636 ps=16.6 w=4.38 l=0.5
X184 fc1 s2 out fc1 sky130_fd_pr__pfet_g5v0d10v5 ad=6.8636 pd=16.6 as=2.7846 ps=18.84 w=4.38 l=0.5
X185 out s2 fc1 fc1 sky130_fd_pr__pfet_g5v0d10v5 ad=2.7846 pd=18.84 as=6.8636 ps=16.6 w=4.38 l=0.5
X186 fc2.t619 s4 VN.t373 VN.t100 sky130_fd_pr__nfet_g5v0d10v5 ad=2.0274 pd=14.09 as=6.2285 ps=16.31 w=4.38 l=0.5
X187 VP.t1276 s1 fc1 VP.t147 sky130_fd_pr__pfet_g5v0d10v5 ad=6.2285 pd=16.31 as=2.7846 ps=18.84 w=4.38 l=0.5
X188 out s2 fc1 fc1 sky130_fd_pr__pfet_g5v0d10v5 ad=2.7846 pd=18.84 as=6.8636 ps=16.6 w=4.38 l=0.5
X189 fc1 s2 out fc1 sky130_fd_pr__pfet_g5v0d10v5 ad=6.2285 pd=16.31 as=2.0274 ps=14.09 w=4.38 l=0.5
X190 out s3 fc2.t370 fc2.t10 sky130_fd_pr__nfet_g5v0d10v5 ad=2.7846 pd=18.84 as=6.8636 ps=16.6 w=4.38 l=0.5
X191 VP.t1275 s1 fc1 VP.t20 sky130_fd_pr__pfet_g5v0d10v5 ad=6.8636 pd=16.6 as=2.7846 ps=18.84 w=4.38 l=0.5
X192 fc1 s2 out fc1 sky130_fd_pr__pfet_g5v0d10v5 ad=6.8636 pd=16.6 as=2.7846 ps=18.84 w=4.38 l=0.5
X193 fc2.t663 s4 VN.t372 VN.t11 sky130_fd_pr__nfet_g5v0d10v5 ad=2.7846 pd=18.84 as=6.8636 ps=16.6 w=4.38 l=0.5
X194 out s2 fc1 fc1 sky130_fd_pr__pfet_g5v0d10v5 ad=2.7846 pd=18.84 as=6.8636 ps=16.6 w=4.38 l=0.5
X195 VP.t1274 s1 fc1 VP.t108 sky130_fd_pr__pfet_g5v0d10v5 ad=6.2285 pd=16.31 as=2.7846 ps=18.84 w=4.38 l=0.5
X196 fc2.t687 s4 VN.t371 VN.t9 sky130_fd_pr__nfet_g5v0d10v5 ad=2.7846 pd=18.84 as=6.8636 ps=16.6 w=4.38 l=0.5
X197 out s2 fc1 fc1 sky130_fd_pr__pfet_g5v0d10v5 ad=2.7846 pd=18.84 as=6.8636 ps=16.6 w=4.38 l=0.5
X198 fc1 s2 out fc1 sky130_fd_pr__pfet_g5v0d10v5 ad=6.8636 pd=16.6 as=2.7846 ps=18.84 w=4.38 l=0.5
X199 fc1 s1 VP.t1273 VP.t116 sky130_fd_pr__pfet_g5v0d10v5 ad=2.0274 pd=14.09 as=6.2285 ps=16.31 w=4.38 l=0.5
X200 fc1 s1 VP.t1272 VP.t34 sky130_fd_pr__pfet_g5v0d10v5 ad=2.7846 pd=18.84 as=6.8636 ps=16.6 w=4.38 l=0.5
X201 out s2 fc1 fc1 sky130_fd_pr__pfet_g5v0d10v5 ad=2.7846 pd=18.84 as=6.8636 ps=16.6 w=4.38 l=0.5
X202 VN.t370 s4 fc2.t494 VN.t9 sky130_fd_pr__nfet_g5v0d10v5 ad=6.8636 pd=16.6 as=2.7846 ps=18.84 w=4.38 l=0.5
X203 out s3 fc2.t369 fc2.t98 sky130_fd_pr__nfet_g5v0d10v5 ad=2.7846 pd=18.84 as=6.8636 ps=16.6 w=4.38 l=0.5
X204 out s2 fc1 fc1 sky130_fd_pr__pfet_g5v0d10v5 ad=2.7846 pd=18.84 as=6.8636 ps=16.6 w=4.38 l=0.5
X205 out s2 fc1 fc1 sky130_fd_pr__pfet_g5v0d10v5 ad=2.7846 pd=18.84 as=6.8636 ps=16.6 w=4.38 l=0.5
X206 fc1 s2 out fc1 sky130_fd_pr__pfet_g5v0d10v5 ad=6.8636 pd=16.6 as=2.7846 ps=18.84 w=4.38 l=0.5
X207 fc1 s1 VP.t1271 VP.t83 sky130_fd_pr__pfet_g5v0d10v5 ad=2.7846 pd=18.84 as=6.8636 ps=16.6 w=4.38 l=0.5
X208 fc1 s1 VP.t1270 VP.t134 sky130_fd_pr__pfet_g5v0d10v5 ad=2.7846 pd=18.84 as=6.8636 ps=16.6 w=4.38 l=0.5
X209 out s2 fc1 fc1 sky130_fd_pr__pfet_g5v0d10v5 ad=2.7846 pd=18.84 as=6.8636 ps=16.6 w=4.38 l=0.5
X210 VP.t1269 s1 fc1 VP.t105 sky130_fd_pr__pfet_g5v0d10v5 ad=6.8636 pd=16.6 as=2.7846 ps=18.84 w=4.38 l=0.5
X211 VN.t369 s4 fc2.t527 VN.t5 sky130_fd_pr__nfet_g5v0d10v5 ad=6.8636 pd=16.6 as=2.7846 ps=18.84 w=4.38 l=0.5
X212 out s2 fc1 fc1 sky130_fd_pr__pfet_g5v0d10v5 ad=2.7846 pd=18.84 as=6.8636 ps=16.6 w=4.38 l=0.5
X213 fc2.t626 s4 VN.t368 VN.t5 sky130_fd_pr__nfet_g5v0d10v5 ad=2.7846 pd=18.84 as=6.8636 ps=16.6 w=4.38 l=0.5
X214 fc1 s1 VP.t1268 VP.t131 sky130_fd_pr__pfet_g5v0d10v5 ad=2.7846 pd=18.84 as=6.8636 ps=16.6 w=4.38 l=0.5
X215 fc1 s1 VP.t1267 VP.t108 sky130_fd_pr__pfet_g5v0d10v5 ad=2.7846 pd=18.84 as=6.8636 ps=16.6 w=4.38 l=0.5
X216 fc1 s1 VP.t1266 VP.t153 sky130_fd_pr__pfet_g5v0d10v5 ad=2.7846 pd=18.84 as=6.8636 ps=16.6 w=4.38 l=0.5
X217 VP.t1265 s1 fc1 VP.t98 sky130_fd_pr__pfet_g5v0d10v5 ad=6.8636 pd=16.6 as=2.7846 ps=18.84 w=4.38 l=0.5
X218 VP.t1264 s1 fc1 VP.t57 sky130_fd_pr__pfet_g5v0d10v5 ad=6.8636 pd=16.6 as=2.7846 ps=18.84 w=4.38 l=0.5
X219 fc1 s1 VP.t1263 VP.t126 sky130_fd_pr__pfet_g5v0d10v5 ad=2.7846 pd=18.84 as=6.8636 ps=16.6 w=4.38 l=0.5
X220 out s2 fc1 fc1 sky130_fd_pr__pfet_g5v0d10v5 ad=2.7846 pd=18.84 as=6.8636 ps=16.6 w=4.38 l=0.5
X221 fc1 s2 out fc1 sky130_fd_pr__pfet_g5v0d10v5 ad=6.8636 pd=16.6 as=2.7846 ps=18.84 w=4.38 l=0.5
X222 VN.t367 s4 fc2.t691 VN.t2 sky130_fd_pr__nfet_g5v0d10v5 ad=6.8636 pd=16.6 as=2.7846 ps=18.84 w=4.38 l=0.5
X223 out s2 fc1 fc1 sky130_fd_pr__pfet_g5v0d10v5 ad=2.7846 pd=18.84 as=6.8636 ps=16.6 w=4.38 l=0.5
X224 out s3 fc2.t368 fc2.t26 sky130_fd_pr__nfet_g5v0d10v5 ad=2.7846 pd=18.84 as=6.8636 ps=16.6 w=4.38 l=0.5
X225 out s2 fc1 fc1 sky130_fd_pr__pfet_g5v0d10v5 ad=2.7846 pd=18.84 as=6.8636 ps=16.6 w=4.38 l=0.5
X226 fc1 s1 VP.t1262 VP.t122 sky130_fd_pr__pfet_g5v0d10v5 ad=2.7846 pd=18.84 as=6.8636 ps=16.6 w=4.38 l=0.5
X227 fc1 s2 out fc1 sky130_fd_pr__pfet_g5v0d10v5 ad=6.2285 pd=16.31 as=2.0274 ps=14.09 w=4.38 l=0.5
X228 fc1 s1 VP.t1261 VP.t147 sky130_fd_pr__pfet_g5v0d10v5 ad=2.0274 pd=14.09 as=6.8636 ps=16.6 w=4.38 l=0.5
X229 VP.t1260 s1 fc1 VP.t72 sky130_fd_pr__pfet_g5v0d10v5 ad=6.8636 pd=16.6 as=2.7846 ps=18.84 w=4.38 l=0.5
X230 VP.t1259 s1 fc1 VP.t108 sky130_fd_pr__pfet_g5v0d10v5 ad=6.8636 pd=16.6 as=2.0274 ps=14.09 w=4.38 l=0.5
X231 fc1 s2 out fc1 sky130_fd_pr__pfet_g5v0d10v5 ad=6.8636 pd=16.6 as=2.7846 ps=18.84 w=4.38 l=0.5
X232 VP.t1258 s1 fc1 VP.t69 sky130_fd_pr__pfet_g5v0d10v5 ad=6.8636 pd=16.6 as=2.0274 ps=14.09 w=4.38 l=0.5
X233 VP.t1257 s1 fc1 VP.t119 sky130_fd_pr__pfet_g5v0d10v5 ad=6.8636 pd=16.6 as=2.7846 ps=18.84 w=4.38 l=0.5
X234 VN.t366 s4 fc2.t533 VN.t33 sky130_fd_pr__nfet_g5v0d10v5 ad=6.8636 pd=16.6 as=2.7846 ps=18.84 w=4.38 l=0.5
X235 out s3 fc2.t367 fc2.t38 sky130_fd_pr__nfet_g5v0d10v5 ad=2.7846 pd=18.84 as=6.8636 ps=16.6 w=4.38 l=0.5
X236 fc2.t366 s3 out fc2.t94 sky130_fd_pr__nfet_g5v0d10v5 ad=6.8636 pd=16.6 as=2.7846 ps=18.84 w=4.38 l=0.5
X237 out s2 fc1 fc1 sky130_fd_pr__pfet_g5v0d10v5 ad=2.0274 pd=14.09 as=6.8636 ps=16.6 w=4.38 l=0.5
X238 fc1 s1 VP.t1256 VP.t156 sky130_fd_pr__pfet_g5v0d10v5 ad=2.7846 pd=18.84 as=6.8636 ps=16.6 w=4.38 l=0.5
X239 fc2.t365 s3 out fc2.t50 sky130_fd_pr__nfet_g5v0d10v5 ad=6.2285 pd=16.31 as=2.0274 ps=14.09 w=4.38 l=0.5
X240 out s2 fc1 fc1 sky130_fd_pr__pfet_g5v0d10v5 ad=2.7846 pd=18.84 as=6.8636 ps=16.6 w=4.38 l=0.5
X241 fc1 s1 VP.t1255 VP.t91 sky130_fd_pr__pfet_g5v0d10v5 ad=2.7846 pd=18.84 as=6.8636 ps=16.6 w=4.38 l=0.5
X242 out s2 fc1 fc1 sky130_fd_pr__pfet_g5v0d10v5 ad=2.0274 pd=14.09 as=6.8636 ps=16.6 w=4.38 l=0.5
X243 VP.t1254 s1 fc1 VP.t134 sky130_fd_pr__pfet_g5v0d10v5 ad=6.8636 pd=16.6 as=2.7846 ps=18.84 w=4.38 l=0.5
X244 VP.t1253 s1 fc1 VP.t111 sky130_fd_pr__pfet_g5v0d10v5 ad=6.8636 pd=16.6 as=2.7846 ps=18.84 w=4.38 l=0.5
X245 out s2 fc1 fc1 sky130_fd_pr__pfet_g5v0d10v5 ad=2.0274 pd=14.09 as=6.2285 ps=16.31 w=4.38 l=0.5
X246 fc1 s2 out fc1 sky130_fd_pr__pfet_g5v0d10v5 ad=6.2285 pd=16.31 as=2.0274 ps=14.09 w=4.38 l=0.5
X247 out s2 fc1 fc1 sky130_fd_pr__pfet_g5v0d10v5 ad=2.7846 pd=18.84 as=6.8636 ps=16.6 w=4.38 l=0.5
X248 VP.t1252 s1 fc1 VP.t131 sky130_fd_pr__pfet_g5v0d10v5 ad=6.8636 pd=16.6 as=2.7846 ps=18.84 w=4.38 l=0.5
X249 fc2.t364 s3 out fc2.t23 sky130_fd_pr__nfet_g5v0d10v5 ad=6.8636 pd=16.6 as=2.7846 ps=18.84 w=4.38 l=0.5
X250 fc1 s2 out fc1 sky130_fd_pr__pfet_g5v0d10v5 ad=6.8636 pd=16.6 as=2.7846 ps=18.84 w=4.38 l=0.5
X251 fc1 s2 out fc1 sky130_fd_pr__pfet_g5v0d10v5 ad=6.8636 pd=16.6 as=2.7846 ps=18.84 w=4.38 l=0.5
X252 fc1 s2 out fc1 sky130_fd_pr__pfet_g5v0d10v5 ad=6.8636 pd=16.6 as=2.7846 ps=18.84 w=4.38 l=0.5
X253 VP.t1251 s1 fc1 VP.t60 sky130_fd_pr__pfet_g5v0d10v5 ad=6.8636 pd=16.6 as=2.7846 ps=18.84 w=4.38 l=0.5
X254 VP.t1250 s1 fc1 VP.t105 sky130_fd_pr__pfet_g5v0d10v5 ad=6.8636 pd=16.6 as=2.7846 ps=18.84 w=4.38 l=0.5
X255 fc2.t363 s3 out fc2.t21 sky130_fd_pr__nfet_g5v0d10v5 ad=6.8636 pd=16.6 as=2.0274 ps=14.09 w=4.38 l=0.5
X256 fc1 s2 out fc1 sky130_fd_pr__pfet_g5v0d10v5 ad=6.8636 pd=16.6 as=2.7846 ps=18.84 w=4.38 l=0.5
X257 VP.t1249 s1 fc1 VP.t126 sky130_fd_pr__pfet_g5v0d10v5 ad=6.8636 pd=16.6 as=2.7846 ps=18.84 w=4.38 l=0.5
X258 out s3 fc2.t362 fc2.t34 sky130_fd_pr__nfet_g5v0d10v5 ad=2.7846 pd=18.84 as=6.8636 ps=16.6 w=4.38 l=0.5
X259 fc1 s2 out fc1 sky130_fd_pr__pfet_g5v0d10v5 ad=6.8636 pd=16.6 as=2.7846 ps=18.84 w=4.38 l=0.5
X260 out s2 fc1 fc1 sky130_fd_pr__pfet_g5v0d10v5 ad=2.7846 pd=18.84 as=6.8636 ps=16.6 w=4.38 l=0.5
X261 out s3 fc2.t361 fc2.t47 sky130_fd_pr__nfet_g5v0d10v5 ad=2.0274 pd=14.09 as=6.8636 ps=16.6 w=4.38 l=0.5
X262 fc1 s2 out fc1 sky130_fd_pr__pfet_g5v0d10v5 ad=6.8636 pd=16.6 as=2.7846 ps=18.84 w=4.38 l=0.5
X263 fc1 s1 VP.t1248 VP.t80 sky130_fd_pr__pfet_g5v0d10v5 ad=2.7846 pd=18.84 as=6.8636 ps=16.6 w=4.38 l=0.5
X264 VP.t1247 s1 fc1 VP.t143 sky130_fd_pr__pfet_g5v0d10v5 ad=6.8636 pd=16.6 as=2.7846 ps=18.84 w=4.38 l=0.5
X265 out s2 fc1 fc1 sky130_fd_pr__pfet_g5v0d10v5 ad=2.7846 pd=18.84 as=6.8636 ps=16.6 w=4.38 l=0.5
X266 VP.t1246 s1 fc1 VP.t122 sky130_fd_pr__pfet_g5v0d10v5 ad=6.8636 pd=16.6 as=2.7846 ps=18.84 w=4.38 l=0.5
X267 VP.t1245 s1 fc1 VP.t136 sky130_fd_pr__pfet_g5v0d10v5 ad=6.8636 pd=16.6 as=2.7846 ps=18.84 w=4.38 l=0.5
X268 fc2.t360 s3 out fc2.t43 sky130_fd_pr__nfet_g5v0d10v5 ad=6.8636 pd=16.6 as=2.7846 ps=18.84 w=4.38 l=0.5
X269 out s3 fc2.t359 fc2.t19 sky130_fd_pr__nfet_g5v0d10v5 ad=2.7846 pd=18.84 as=6.8636 ps=16.6 w=4.38 l=0.5
X270 VN.t365 s4 fc2.t535 VN.t91 sky130_fd_pr__nfet_g5v0d10v5 ad=6.8636 pd=16.6 as=2.7846 ps=18.84 w=4.38 l=0.5
X271 fc2.t358 s3 out fc2.t16 sky130_fd_pr__nfet_g5v0d10v5 ad=6.8636 pd=16.6 as=2.7846 ps=18.84 w=4.38 l=0.5
X272 fc1 s2 out fc1 sky130_fd_pr__pfet_g5v0d10v5 ad=6.8636 pd=16.6 as=2.7846 ps=18.84 w=4.38 l=0.5
X273 fc1 s1 VP.t1244 VP.t119 sky130_fd_pr__pfet_g5v0d10v5 ad=2.7846 pd=18.84 as=6.8636 ps=16.6 w=4.38 l=0.5
X274 VN.t364 s4 fc2.t555 VN.t100 sky130_fd_pr__nfet_g5v0d10v5 ad=6.2285 pd=16.31 as=1.3312 ps=9.38 w=4.38 l=0.5
X275 VN.t363 s4 fc2.t653 VN.t93 sky130_fd_pr__nfet_g5v0d10v5 ad=6.8636 pd=16.6 as=2.7846 ps=18.84 w=4.38 l=0.5
X276 out s2 fc1 fc1 sky130_fd_pr__pfet_g5v0d10v5 ad=2.7846 pd=18.84 as=6.8636 ps=16.6 w=4.38 l=0.5
X277 VP.t1243 s1 fc1 VP.t156 sky130_fd_pr__pfet_g5v0d10v5 ad=6.8636 pd=16.6 as=2.7846 ps=18.84 w=4.38 l=0.5
X278 fc1 s1 VP.t1242 VP.t49 sky130_fd_pr__pfet_g5v0d10v5 ad=2.7846 pd=18.84 as=6.8636 ps=16.6 w=4.38 l=0.5
X279 fc1 s2 out fc1 sky130_fd_pr__pfet_g5v0d10v5 ad=6.2285 pd=16.31 as=2.0274 ps=14.09 w=4.38 l=0.5
X280 fc1 s1 VP.t1241 VP.t147 sky130_fd_pr__pfet_g5v0d10v5 ad=2.0274 pd=14.09 as=6.8636 ps=16.6 w=4.38 l=0.5
X281 out s2 fc1 fc1 sky130_fd_pr__pfet_g5v0d10v5 ad=2.7846 pd=18.84 as=6.8636 ps=16.6 w=4.38 l=0.5
X282 VP.t1240 s1 fc1 VP.t153 sky130_fd_pr__pfet_g5v0d10v5 ad=6.8636 pd=16.6 as=2.7846 ps=18.84 w=4.38 l=0.5
X283 fc1 s2 out fc1 sky130_fd_pr__pfet_g5v0d10v5 ad=6.8636 pd=16.6 as=2.7846 ps=18.84 w=4.38 l=0.5
X284 out s3 fc2.t357 fc2.t41 sky130_fd_pr__nfet_g5v0d10v5 ad=2.7846 pd=18.84 as=6.8636 ps=16.6 w=4.38 l=0.5
X285 fc1 s2 out fc1 sky130_fd_pr__pfet_g5v0d10v5 ad=6.8636 pd=16.6 as=2.7846 ps=18.84 w=4.38 l=0.5