* NGSPICE file created from mag_files/POSTLAYOUT/power_stage_flat.ext - technology: sky130A

.subckt power_stage_flat s1 s2 s3 s4 fc1 fc2 out VP VN
X0 VP s1 fc1 VP sky130_fd_pr__pfet_g5v0d10v5 ad=6.8636 pd=16.6 as=2.7846 ps=18.84 w=4.38 l=0.5
X1 fc1 s1 VP VP sky130_fd_pr__pfet_g5v0d10v5 ad=2.7846 pd=18.84 as=6.8636 ps=16.6 w=4.38 l=0.5
X2 fc2 s3 out fc2 sky130_fd_pr__nfet_g5v0d10v5 ad=6.8636 pd=16.6 as=2.7846 ps=18.84 w=4.38 l=0.5
X3 out s3 fc2 fc2 sky130_fd_pr__nfet_g5v0d10v5 ad=2.7846 pd=18.84 as=6.8636 ps=16.6 w=4.38 l=0.5
X4 fc1 s2 out fc1 sky130_fd_pr__pfet_g5v0d10v5 ad=6.8636 pd=16.6 as=2.7846 ps=18.84 w=4.38 l=0.5
X5 fc1 s1 VP VP sky130_fd_pr__pfet_g5v0d10v5 ad=2.7846 pd=18.84 as=6.8636 ps=16.6 w=4.38 l=0.5
X6 VP s1 fc1 VP sky130_fd_pr__pfet_g5v0d10v5 ad=6.8636 pd=16.6 as=2.7846 ps=18.84 w=4.38 l=0.5
X7 VN.t2590 s4 fc2 VN.t76 sky130_fd_pr__nfet_g5v0d10v5 ad=6.8636 pd=16.6 as=2.7846 ps=18.84 w=4.38 l=0.5
X8 fc2 s3 out fc2 sky130_fd_pr__nfet_g5v0d10v5 ad=6.8636 pd=16.6 as=2.7846 ps=18.84 w=4.38 l=0.5
X9 fc1 s1 VP VP sky130_fd_pr__pfet_g5v0d10v5 ad=2.7846 pd=18.84 as=6.8636 ps=16.6 w=4.38 l=0.5
X10 out s2 fc1 fc1 sky130_fd_pr__pfet_g5v0d10v5 ad=2.7846 pd=18.84 as=6.8636 ps=16.6 w=4.38 l=0.5
X11 VN.t2589 s4 fc2 VN.t269 sky130_fd_pr__nfet_g5v0d10v5 ad=6.8636 pd=16.6 as=2.7846 ps=18.84 w=4.38 l=0.5
X12 fc1 s1 VP VP sky130_fd_pr__pfet_g5v0d10v5 ad=2.7846 pd=18.84 as=6.8636 ps=16.6 w=4.38 l=0.5
X13 VP s1 fc1 VP sky130_fd_pr__pfet_g5v0d10v5 ad=6.8636 pd=16.6 as=2.7846 ps=18.84 w=4.38 l=0.5
X14 fc2 s3 out fc2 sky130_fd_pr__nfet_g5v0d10v5 ad=6.8636 pd=16.6 as=2.7846 ps=18.84 w=4.38 l=0.5
X15 VP s1 fc1 VP sky130_fd_pr__pfet_g5v0d10v5 ad=6.8636 pd=16.6 as=2.7846 ps=18.84 w=4.38 l=0.5
X16 fc2 s3 out fc2 sky130_fd_pr__nfet_g5v0d10v5 ad=6.8636 pd=16.6 as=2.7846 ps=18.84 w=4.38 l=0.5
X17 fc1 s1 VP VP sky130_fd_pr__pfet_g5v0d10v5 ad=2.0274 pd=14.09 as=6.8636 ps=16.6 w=4.38 l=0.5
X18 VP s1 fc1 VP sky130_fd_pr__pfet_g5v0d10v5 ad=6.8636 pd=16.6 as=2.7846 ps=18.84 w=4.38 l=0.5
X19 fc1 s2 out fc1 sky130_fd_pr__pfet_g5v0d10v5 ad=6.8636 pd=16.6 as=2.7846 ps=18.84 w=4.38 l=0.5
X20 fc1 s2 out fc1 sky130_fd_pr__pfet_g5v0d10v5 ad=6.8636 pd=16.6 as=2.7846 ps=18.84 w=4.38 l=0.5
X21 fc1 s2 out fc1 sky130_fd_pr__pfet_g5v0d10v5 ad=6.8636 pd=16.6 as=2.7846 ps=18.84 w=4.38 l=0.5
X22 fc1 s2 out fc1 sky130_fd_pr__pfet_g5v0d10v5 ad=6.8636 pd=16.6 as=2.7846 ps=18.84 w=4.38 l=0.5
X23 out s2 fc1 fc1 sky130_fd_pr__pfet_g5v0d10v5 ad=2.7846 pd=18.84 as=6.8636 ps=16.6 w=4.38 l=0.5
X24 fc2 s4 VN.t2588 VN.t120 sky130_fd_pr__nfet_g5v0d10v5 ad=2.7846 pd=18.84 as=6.8636 ps=16.6 w=4.38 l=0.5
X25 out s2 fc1 fc1 sky130_fd_pr__pfet_g5v0d10v5 ad=2.7846 pd=18.84 as=6.8636 ps=16.6 w=4.38 l=0.5
X26 VN.t2587 s4 fc2 VN.t41 sky130_fd_pr__nfet_g5v0d10v5 ad=6.8636 pd=16.6 as=2.7846 ps=18.84 w=4.38 l=0.5
X27 out s3 fc2 fc2 sky130_fd_pr__nfet_g5v0d10v5 ad=2.7846 pd=18.84 as=6.8636 ps=16.6 w=4.38 l=0.5
X28 out s2 fc1 fc1 sky130_fd_pr__pfet_g5v0d10v5 ad=2.7846 pd=18.84 as=6.8636 ps=16.6 w=4.38 l=0.5
X29 fc1 s2 out fc1 sky130_fd_pr__pfet_g5v0d10v5 ad=6.8636 pd=16.6 as=2.7846 ps=18.84 w=4.38 l=0.5
X30 out s3 fc2 fc2 sky130_fd_pr__nfet_g5v0d10v5 ad=2.7846 pd=18.84 as=6.8636 ps=16.6 w=4.38 l=0.5
X31 out s2 fc1 fc1 sky130_fd_pr__pfet_g5v0d10v5 ad=2.7846 pd=18.84 as=6.8636 ps=16.6 w=4.38 l=0.5
X32 fc2 s4 VN.t2586 VN.t26 sky130_fd_pr__nfet_g5v0d10v5 ad=2.7846 pd=18.84 as=6.8636 ps=16.6 w=4.38 l=0.5
X33 out s3 fc2 fc2 sky130_fd_pr__nfet_g5v0d10v5 ad=2.0274 pd=14.09 as=6.2285 ps=16.31 w=4.38 l=0.5
X34 VP s1 fc1 VP sky130_fd_pr__pfet_g5v0d10v5 ad=6.8636 pd=16.6 as=2.7846 ps=18.84 w=4.38 l=0.5
X35 fc1 s1 VP VP sky130_fd_pr__pfet_g5v0d10v5 ad=2.7846 pd=18.84 as=6.2285 ps=16.31 w=4.38 l=0.5
X36 out s2 fc1 fc1 sky130_fd_pr__pfet_g5v0d10v5 ad=2.7846 pd=18.84 as=6.8636 ps=16.6 w=4.38 l=0.5
X37 fc2 s3 out fc2 sky130_fd_pr__nfet_g5v0d10v5 ad=6.8636 pd=16.6 as=2.7846 ps=18.84 w=4.38 l=0.5
X38 fc2 s3 out fc2 sky130_fd_pr__nfet_g5v0d10v5 ad=6.2285 pd=16.31 as=2.7846 ps=18.84 w=4.38 l=0.5
X39 out s3 fc2 fc2 sky130_fd_pr__nfet_g5v0d10v5 ad=2.7846 pd=18.84 as=6.8636 ps=16.6 w=4.38 l=0.5
X40 out s2 fc1 fc1 sky130_fd_pr__pfet_g5v0d10v5 ad=2.7846 pd=18.84 as=6.8636 ps=16.6 w=4.38 l=0.5
X41 out s3 fc2 fc2 sky130_fd_pr__nfet_g5v0d10v5 ad=2.7846 pd=18.84 as=6.8636 ps=16.6 w=4.38 l=0.5
X42 fc1 s1 VP VP sky130_fd_pr__pfet_g5v0d10v5 ad=2.7846 pd=18.84 as=6.8636 ps=16.6 w=4.38 l=0.5
X43 VN.t2585 s4 fc2 VN.t16 sky130_fd_pr__nfet_g5v0d10v5 ad=6.8636 pd=16.6 as=2.7846 ps=18.84 w=4.38 l=0.5
X44 fc1 s2 out fc1 sky130_fd_pr__pfet_g5v0d10v5 ad=6.8636 pd=16.6 as=2.7846 ps=18.84 w=4.38 l=0.5
X45 VP s1 fc1 VP sky130_fd_pr__pfet_g5v0d10v5 ad=6.8636 pd=16.6 as=2.0274 ps=14.09 w=4.38 l=0.5
X46 out s2 fc1 fc1 sky130_fd_pr__pfet_g5v0d10v5 ad=2.0274 pd=14.09 as=6.8636 ps=16.6 w=4.38 l=0.5
X47 out s2 fc1 fc1 sky130_fd_pr__pfet_g5v0d10v5 ad=2.7846 pd=18.84 as=6.8636 ps=16.6 w=4.38 l=0.5
X48 VN.t2584 s4 fc2 VN.t55 sky130_fd_pr__nfet_g5v0d10v5 ad=6.8636 pd=16.6 as=2.7846 ps=18.84 w=4.38 l=0.5
X49 VN.t2583 s4 fc2 VN.t68 sky130_fd_pr__nfet_g5v0d10v5 ad=6.8636 pd=16.6 as=2.7846 ps=18.84 w=4.38 l=0.5
X50 fc1 s1 VP VP sky130_fd_pr__pfet_g5v0d10v5 ad=2.7846 pd=18.84 as=6.8636 ps=16.6 w=4.38 l=0.5
X51 VP s1 fc1 VP sky130_fd_pr__pfet_g5v0d10v5 ad=6.8636 pd=16.6 as=2.7846 ps=18.84 w=4.38 l=0.5
X52 fc1 s1 VP VP sky130_fd_pr__pfet_g5v0d10v5 ad=2.7846 pd=18.84 as=6.8636 ps=16.6 w=4.38 l=0.5
X53 out s2 fc1 fc1 sky130_fd_pr__pfet_g5v0d10v5 ad=2.7846 pd=18.84 as=6.8636 ps=16.6 w=4.38 l=0.5
X54 VN.t2582 s4 fc2 VN.t108 sky130_fd_pr__nfet_g5v0d10v5 ad=6.8636 pd=16.6 as=2.7846 ps=18.84 w=4.38 l=0.5
X55 out s2 fc1 fc1 sky130_fd_pr__pfet_g5v0d10v5 ad=2.7846 pd=18.84 as=6.8636 ps=16.6 w=4.38 l=0.5
X56 out s2 fc1 fc1 sky130_fd_pr__pfet_g5v0d10v5 ad=2.7846 pd=18.84 as=6.8636 ps=16.6 w=4.38 l=0.5
X57 fc1 s1 VP VP sky130_fd_pr__pfet_g5v0d10v5 ad=2.7846 pd=18.84 as=6.8636 ps=16.6 w=4.38 l=0.5
X58 fc1 s1 VP VP sky130_fd_pr__pfet_g5v0d10v5 ad=2.7846 pd=18.84 as=6.8636 ps=16.6 w=4.38 l=0.5
X59 VN.t2581 s4 fc2 VN.t37 sky130_fd_pr__nfet_g5v0d10v5 ad=6.8636 pd=16.6 as=2.7846 ps=18.84 w=4.38 l=0.5
X60 VP s1 fc1 VP sky130_fd_pr__pfet_g5v0d10v5 ad=6.8636 pd=16.6 as=2.7846 ps=18.84 w=4.38 l=0.5
X61 VN.t2580 s4 fc2 VN.t350 sky130_fd_pr__nfet_g5v0d10v5 ad=6.8636 pd=16.6 as=2.7846 ps=18.84 w=4.38 l=0.5
X62 fc1 s1 VP VP sky130_fd_pr__pfet_g5v0d10v5 ad=2.7846 pd=18.84 as=6.8636 ps=16.6 w=4.38 l=0.5
X63 out s2 fc1 fc1 sky130_fd_pr__pfet_g5v0d10v5 ad=2.7846 pd=18.84 as=6.8636 ps=16.6 w=4.38 l=0.5
X64 out s2 fc1 fc1 sky130_fd_pr__pfet_g5v0d10v5 ad=2.7846 pd=18.84 as=6.8636 ps=16.6 w=4.38 l=0.5
X65 fc1 s2 out fc1 sky130_fd_pr__pfet_g5v0d10v5 ad=6.8636 pd=16.6 as=2.7846 ps=18.84 w=4.38 l=0.5
X66 out s3 fc2 fc2 sky130_fd_pr__nfet_g5v0d10v5 ad=2.7846 pd=18.84 as=6.8636 ps=16.6 w=4.38 l=0.5
X67 fc1 s2 out fc1 sky130_fd_pr__pfet_g5v0d10v5 ad=6.8636 pd=16.6 as=2.7846 ps=18.84 w=4.38 l=0.5
X68 fc2 s4 VN.t2579 VN.t47 sky130_fd_pr__nfet_g5v0d10v5 ad=2.7846 pd=18.84 as=6.8636 ps=16.6 w=4.38 l=0.5
X69 fc1 s1 VP VP sky130_fd_pr__pfet_g5v0d10v5 ad=2.7846 pd=18.84 as=6.8636 ps=16.6 w=4.38 l=0.5
X70 VP s1 fc1 VP sky130_fd_pr__pfet_g5v0d10v5 ad=6.8636 pd=16.6 as=2.7846 ps=18.84 w=4.38 l=0.5
X71 fc1 s1 VP VP sky130_fd_pr__pfet_g5v0d10v5 ad=2.7846 pd=18.84 as=6.8636 ps=16.6 w=4.38 l=0.5
X72 out s2 fc1 fc1 sky130_fd_pr__pfet_g5v0d10v5 ad=2.7846 pd=18.84 as=6.8636 ps=16.6 w=4.38 l=0.5
X73 VN.t2578 s4 fc2 VN.t76 sky130_fd_pr__nfet_g5v0d10v5 ad=6.8636 pd=16.6 as=2.7846 ps=18.84 w=4.38 l=0.5
X74 fc2 s3 out fc2 sky130_fd_pr__nfet_g5v0d10v5 ad=6.8636 pd=16.6 as=2.7846 ps=18.84 w=4.38 l=0.5
X75 fc2 s3 out fc2 sky130_fd_pr__nfet_g5v0d10v5 ad=6.8636 pd=16.6 as=2.7846 ps=18.84 w=4.38 l=0.5
X76 fc1 s2 out fc1 sky130_fd_pr__pfet_g5v0d10v5 ad=6.2285 pd=16.31 as=2.0274 ps=14.09 w=4.38 l=0.5
X77 VN.t2577 s4 fc2 VN.t224 sky130_fd_pr__nfet_g5v0d10v5 ad=6.8636 pd=16.6 as=2.7846 ps=18.84 w=4.38 l=0.5
X78 fc1 s1 VP VP sky130_fd_pr__pfet_g5v0d10v5 ad=2.7846 pd=18.84 as=6.8636 ps=16.6 w=4.38 l=0.5
X79 out s2 fc1 fc1 sky130_fd_pr__pfet_g5v0d10v5 ad=2.0274 pd=14.09 as=6.2285 ps=16.31 w=4.38 l=0.5
X80 fc1 s2 out fc1 sky130_fd_pr__pfet_g5v0d10v5 ad=6.8636 pd=16.6 as=2.7846 ps=18.84 w=4.38 l=0.5
X81 fc2 s4 VN.t2576 VN.t155 sky130_fd_pr__nfet_g5v0d10v5 ad=2.0274 pd=14.09 as=6.2285 ps=16.31 w=4.38 l=0.5
X82 fc1 s1 VP VP sky130_fd_pr__pfet_g5v0d10v5 ad=2.7846 pd=18.84 as=6.8636 ps=16.6 w=4.38 l=0.5
X83 out s2 fc1 fc1 sky130_fd_pr__pfet_g5v0d10v5 ad=2.7846 pd=18.84 as=6.8636 ps=16.6 w=4.38 l=0.5
X84 out s3 fc2 fc2 sky130_fd_pr__nfet_g5v0d10v5 ad=2.7846 pd=18.84 as=6.8636 ps=16.6 w=4.38 l=0.5
X85 VP s1 fc1 VP sky130_fd_pr__pfet_g5v0d10v5 ad=6.8636 pd=16.6 as=2.7846 ps=18.84 w=4.38 l=0.5
X86 fc1 s2 out fc1 sky130_fd_pr__pfet_g5v0d10v5 ad=6.8636 pd=16.6 as=2.7846 ps=18.84 w=4.38 l=0.5
X87 fc1 s1 VP VP sky130_fd_pr__pfet_g5v0d10v5 ad=2.7846 pd=18.84 as=6.8636 ps=16.6 w=4.38 l=0.5
X88 fc1 s2 out fc1 sky130_fd_pr__pfet_g5v0d10v5 ad=6.8636 pd=16.6 as=2.7846 ps=18.84 w=4.38 l=0.5
X89 fc1 s1 VP VP sky130_fd_pr__pfet_g5v0d10v5 ad=2.7846 pd=18.84 as=6.8636 ps=16.6 w=4.38 l=0.5
X90 VP s1 fc1 VP sky130_fd_pr__pfet_g5v0d10v5 ad=6.8636 pd=16.6 as=2.7846 ps=18.84 w=4.38 l=0.5
X91 fc2 s4 VN.t2575 VN.t160 sky130_fd_pr__nfet_g5v0d10v5 ad=2.7846 pd=18.84 as=6.8636 ps=16.6 w=4.38 l=0.5
X92 fc2 s3 out fc2 sky130_fd_pr__nfet_g5v0d10v5 ad=6.8636 pd=16.6 as=2.7846 ps=18.84 w=4.38 l=0.5
X93 out s3 fc2 fc2 sky130_fd_pr__nfet_g5v0d10v5 ad=2.7846 pd=18.84 as=6.8636 ps=16.6 w=4.38 l=0.5
X94 fc1 s1 VP VP sky130_fd_pr__pfet_g5v0d10v5 ad=2.7846 pd=18.84 as=6.8636 ps=16.6 w=4.38 l=0.5
X95 VP s1 fc1 VP sky130_fd_pr__pfet_g5v0d10v5 ad=6.8636 pd=16.6 as=2.7846 ps=18.84 w=4.38 l=0.5
X96 fc1 s1 VP VP sky130_fd_pr__pfet_g5v0d10v5 ad=2.7846 pd=18.84 as=6.8636 ps=16.6 w=4.38 l=0.5
X97 VP s1 fc1 VP sky130_fd_pr__pfet_g5v0d10v5 ad=6.2285 pd=16.31 as=2.0274 ps=14.09 w=4.38 l=0.5
X98 fc1 s1 VP VP sky130_fd_pr__pfet_g5v0d10v5 ad=2.7846 pd=18.84 as=6.8636 ps=16.6 w=4.38 l=0.5
X99 out s2 fc1 fc1 sky130_fd_pr__pfet_g5v0d10v5 ad=2.7846 pd=18.84 as=6.8636 ps=16.6 w=4.38 l=0.5
X100 VN.t2574 s4 fc2 VN.t99 sky130_fd_pr__nfet_g5v0d10v5 ad=6.8636 pd=16.6 as=2.7846 ps=18.84 w=4.38 l=0.5
X101 fc1 s1 VP VP sky130_fd_pr__pfet_g5v0d10v5 ad=2.7846 pd=18.84 as=6.8636 ps=16.6 w=4.38 l=0.5
X102 VN.t2573 s4 fc2 VN.t158 sky130_fd_pr__nfet_g5v0d10v5 ad=6.8636 pd=16.6 as=2.7846 ps=18.84 w=4.38 l=0.5
X103 VP s1 fc1 VP sky130_fd_pr__pfet_g5v0d10v5 ad=6.8636 pd=16.6 as=2.7846 ps=18.84 w=4.38 l=0.5
X104 fc2 s3 out fc2 sky130_fd_pr__nfet_g5v0d10v5 ad=6.2285 pd=16.31 as=2.7846 ps=18.84 w=4.38 l=0.5
X105 fc2 s4 VN.t2572 VN.t49 sky130_fd_pr__nfet_g5v0d10v5 ad=2.7846 pd=18.84 as=6.8636 ps=16.6 w=4.38 l=0.5
X106 fc1 s1 VP VP sky130_fd_pr__pfet_g5v0d10v5 ad=2.7846 pd=18.84 as=6.8636 ps=16.6 w=4.38 l=0.5
X107 VP s1 fc1 VP sky130_fd_pr__pfet_g5v0d10v5 ad=6.8636 pd=16.6 as=2.7846 ps=18.84 w=4.38 l=0.5
X108 out s2 fc1 fc1 sky130_fd_pr__pfet_g5v0d10v5 ad=2.7846 pd=18.84 as=6.8636 ps=16.6 w=4.38 l=0.5
X109 fc2 s4 VN.t2571 VN.t41 sky130_fd_pr__nfet_g5v0d10v5 ad=2.7846 pd=18.84 as=6.8636 ps=16.6 w=4.38 l=0.5
X110 fc2 s3 out fc2 sky130_fd_pr__nfet_g5v0d10v5 ad=6.8636 pd=16.6 as=2.7846 ps=18.84 w=4.38 l=0.5
X111 VP s1 fc1 VP sky130_fd_pr__pfet_g5v0d10v5 ad=6.8636 pd=16.6 as=2.7846 ps=18.84 w=4.38 l=0.5
X112 VN.t2570 s4 fc2 VN.t28 sky130_fd_pr__nfet_g5v0d10v5 ad=6.8636 pd=16.6 as=2.7846 ps=18.84 w=4.38 l=0.5
X113 fc1 s1 VP VP sky130_fd_pr__pfet_g5v0d10v5 ad=2.7846 pd=18.84 as=6.8636 ps=16.6 w=4.38 l=0.5
X114 fc1 s2 out fc1 sky130_fd_pr__pfet_g5v0d10v5 ad=6.8636 pd=16.6 as=2.7846 ps=18.84 w=4.38 l=0.5
X115 fc2 s3 out fc2 sky130_fd_pr__nfet_g5v0d10v5 ad=6.8636 pd=16.6 as=2.7846 ps=18.84 w=4.38 l=0.5
X116 fc2 s3 out fc2 sky130_fd_pr__nfet_g5v0d10v5 ad=6.8636 pd=16.6 as=2.7846 ps=18.84 w=4.38 l=0.5
X117 out s2 fc1 fc1 sky130_fd_pr__pfet_g5v0d10v5 ad=2.7846 pd=18.84 as=6.8636 ps=16.6 w=4.38 l=0.5
X118 fc1 s1 VP VP sky130_fd_pr__pfet_g5v0d10v5 ad=2.7846 pd=18.84 as=6.8636 ps=16.6 w=4.38 l=0.5
X119 fc1 s2 out fc1 sky130_fd_pr__pfet_g5v0d10v5 ad=6.8636 pd=16.6 as=2.7846 ps=18.84 w=4.38 l=0.5
X120 fc2 s4 VN.t2569 VN.t90 sky130_fd_pr__nfet_g5v0d10v5 ad=2.7846 pd=18.84 as=6.8636 ps=16.6 w=4.38 l=0.5
X121 out s2 fc1 fc1 sky130_fd_pr__pfet_g5v0d10v5 ad=2.7846 pd=18.84 as=6.8636 ps=16.6 w=4.38 l=0.5
X122 fc1 s2 out fc1 sky130_fd_pr__pfet_g5v0d10v5 ad=6.8636 pd=16.6 as=2.7846 ps=18.84 w=4.38 l=0.5
X123 VN.t2568 s4 fc2 VN.t88 sky130_fd_pr__nfet_g5v0d10v5 ad=6.8636 pd=16.6 as=2.7846 ps=18.84 w=4.38 l=0.5
X124 fc2 s4 VN.t2567 VN.t22 sky130_fd_pr__nfet_g5v0d10v5 ad=2.7846 pd=18.84 as=6.8636 ps=16.6 w=4.38 l=0.5
X125 fc2 s3 out fc2 sky130_fd_pr__nfet_g5v0d10v5 ad=6.8636 pd=16.6 as=2.7846 ps=18.84 w=4.38 l=0.5
X126 VN.t2566 s4 fc2 VN.t110 sky130_fd_pr__nfet_g5v0d10v5 ad=6.8636 pd=16.6 as=2.7846 ps=18.84 w=4.38 l=0.5
X127 fc1 s1 VP VP sky130_fd_pr__pfet_g5v0d10v5 ad=2.7846 pd=18.84 as=6.8636 ps=16.6 w=4.38 l=0.5
X128 VP s1 fc1 VP sky130_fd_pr__pfet_g5v0d10v5 ad=6.8636 pd=16.6 as=2.7846 ps=18.84 w=4.38 l=0.5
X129 fc1 s2 out fc1 sky130_fd_pr__pfet_g5v0d10v5 ad=6.8636 pd=16.6 as=2.7846 ps=18.84 w=4.38 l=0.5
X130 out s2 fc1 fc1 sky130_fd_pr__pfet_g5v0d10v5 ad=2.7846 pd=18.84 as=6.8636 ps=16.6 w=4.38 l=0.5
X131 out s3 fc2 fc2 sky130_fd_pr__nfet_g5v0d10v5 ad=2.7846 pd=18.84 as=6.8636 ps=16.6 w=4.38 l=0.5
X132 fc1 s1 VP VP sky130_fd_pr__pfet_g5v0d10v5 ad=2.7846 pd=18.84 as=6.8636 ps=16.6 w=4.38 l=0.5
X133 fc1 s2 out fc1 sky130_fd_pr__pfet_g5v0d10v5 ad=6.8636 pd=16.6 as=2.7846 ps=18.84 w=4.38 l=0.5
X134 out s3 fc2 fc2 sky130_fd_pr__nfet_g5v0d10v5 ad=2.7846 pd=18.84 as=6.8636 ps=16.6 w=4.38 l=0.5
X135 out s2 fc1 fc1 sky130_fd_pr__pfet_g5v0d10v5 ad=2.7846 pd=18.84 as=6.8636 ps=16.6 w=4.38 l=0.5
X136 fc1 s2 out fc1 sky130_fd_pr__pfet_g5v0d10v5 ad=6.8636 pd=16.6 as=2.7846 ps=18.84 w=4.38 l=0.5
X137 VP s1 fc1 VP sky130_fd_pr__pfet_g5v0d10v5 ad=6.8636 pd=16.6 as=2.7846 ps=18.84 w=4.38 l=0.5
X138 out s2 fc1 fc1 sky130_fd_pr__pfet_g5v0d10v5 ad=2.7846 pd=18.84 as=6.8636 ps=16.6 w=4.38 l=0.5
X139 VP s1 fc1 VP sky130_fd_pr__pfet_g5v0d10v5 ad=6.8636 pd=16.6 as=2.7846 ps=18.84 w=4.38 l=0.5
X140 out s2 fc1 fc1 sky130_fd_pr__pfet_g5v0d10v5 ad=2.7846 pd=18.84 as=6.8636 ps=16.6 w=4.38 l=0.5
X141 out s3 fc2 fc2 sky130_fd_pr__nfet_g5v0d10v5 ad=2.7846 pd=18.84 as=6.8636 ps=16.6 w=4.38 l=0.5
X142 fc2 s3 out fc2 sky130_fd_pr__nfet_g5v0d10v5 ad=6.8636 pd=16.6 as=2.7846 ps=18.84 w=4.38 l=0.5
X143 out s2 fc1 fc1 sky130_fd_pr__pfet_g5v0d10v5 ad=2.7846 pd=18.84 as=6.8636 ps=16.6 w=4.38 l=0.5
X144 fc1 s1 VP VP sky130_fd_pr__pfet_g5v0d10v5 ad=2.7846 pd=18.84 as=6.8636 ps=16.6 w=4.38 l=0.5
X145 VP s1 fc1 VP sky130_fd_pr__pfet_g5v0d10v5 ad=6.8636 pd=16.6 as=2.7846 ps=18.84 w=4.38 l=0.5
X146 fc1 s2 out fc1 sky130_fd_pr__pfet_g5v0d10v5 ad=6.8636 pd=16.6 as=2.7846 ps=18.84 w=4.38 l=0.5
X147 fc2 s4 VN.t2565 VN.t32 sky130_fd_pr__nfet_g5v0d10v5 ad=2.7846 pd=18.84 as=6.8636 ps=16.6 w=4.38 l=0.5
X148 VP s1 fc1 VP sky130_fd_pr__pfet_g5v0d10v5 ad=6.8636 pd=16.6 as=2.7846 ps=18.84 w=4.38 l=0.5
X149 fc2 s3 out fc2 sky130_fd_pr__nfet_g5v0d10v5 ad=6.8636 pd=16.6 as=2.7846 ps=18.84 w=4.38 l=0.5
X150 fc1 s1 VP VP sky130_fd_pr__pfet_g5v0d10v5 ad=2.7846 pd=18.84 as=6.8636 ps=16.6 w=4.38 l=0.5
X151 fc1 s2 out fc1 sky130_fd_pr__pfet_g5v0d10v5 ad=6.8636 pd=16.6 as=2.7846 ps=18.84 w=4.38 l=0.5
X152 VN.t2564 s4 fc2 VN.t241 sky130_fd_pr__nfet_g5v0d10v5 ad=6.8636 pd=16.6 as=2.7846 ps=18.84 w=4.38 l=0.5
X153 out s3 fc2 fc2 sky130_fd_pr__nfet_g5v0d10v5 ad=2.7846 pd=18.84 as=6.8636 ps=16.6 w=4.38 l=0.5
X154 out s2 fc1 fc1 sky130_fd_pr__pfet_g5v0d10v5 ad=2.0274 pd=14.09 as=6.8636 ps=16.6 w=4.38 l=0.5
X155 VP s1 fc1 VP sky130_fd_pr__pfet_g5v0d10v5 ad=6.8636 pd=16.6 as=2.7846 ps=18.84 w=4.38 l=0.5
X156 VP s1 fc1 VP sky130_fd_pr__pfet_g5v0d10v5 ad=6.8636 pd=16.6 as=2.7846 ps=18.84 w=4.38 l=0.5
X157 fc1 s2 out fc1 sky130_fd_pr__pfet_g5v0d10v5 ad=6.8636 pd=16.6 as=2.7846 ps=18.84 w=4.38 l=0.5
X158 out s2 fc1 fc1 sky130_fd_pr__pfet_g5v0d10v5 ad=2.7846 pd=18.84 as=6.8636 ps=16.6 w=4.38 l=0.5
X159 VP s1 fc1 VP sky130_fd_pr__pfet_g5v0d10v5 ad=6.2285 pd=16.31 as=2.7846 ps=18.84 w=4.38 l=0.5
X160 VN.t2563 s4 fc2 VN.t103 sky130_fd_pr__nfet_g5v0d10v5 ad=6.8636 pd=16.6 as=2.7846 ps=18.84 w=4.38 l=0.5
X161 out s3 fc2 fc2 sky130_fd_pr__nfet_g5v0d10v5 ad=2.7846 pd=18.84 as=6.8636 ps=16.6 w=4.38 l=0.5
X162 out s2 fc1 fc1 sky130_fd_pr__pfet_g5v0d10v5 ad=2.7846 pd=18.84 as=6.8636 ps=16.6 w=4.38 l=0.5
X163 fc1 s1 VP VP sky130_fd_pr__pfet_g5v0d10v5 ad=2.7846 pd=18.84 as=6.8636 ps=16.6 w=4.38 l=0.5
X164 fc1 s1 VP VP sky130_fd_pr__pfet_g5v0d10v5 ad=2.7846 pd=18.84 as=6.8636 ps=16.6 w=4.38 l=0.5
X165 fc1 s2 out fc1 sky130_fd_pr__pfet_g5v0d10v5 ad=6.8636 pd=16.6 as=2.7846 ps=18.84 w=4.38 l=0.5
X166 fc2 s3 out fc2 sky130_fd_pr__nfet_g5v0d10v5 ad=6.8636 pd=16.6 as=2.7846 ps=18.84 w=4.38 l=0.5
X167 VN.t2562 s4 fc2 VN.t201 sky130_fd_pr__nfet_g5v0d10v5 ad=6.8636 pd=16.6 as=2.7846 ps=18.84 w=4.38 l=0.5
X168 out s3 fc2 fc2 sky130_fd_pr__nfet_g5v0d10v5 ad=2.7846 pd=18.84 as=6.8636 ps=16.6 w=4.38 l=0.5
X169 fc1 s1 VP VP sky130_fd_pr__pfet_g5v0d10v5 ad=2.7846 pd=18.84 as=6.8636 ps=16.6 w=4.38 l=0.5
X170 VP s1 fc1 VP sky130_fd_pr__pfet_g5v0d10v5 ad=6.8636 pd=16.6 as=2.7846 ps=18.84 w=4.38 l=0.5
X171 fc2 s4 VN.t2561 VN.t241 sky130_fd_pr__nfet_g5v0d10v5 ad=2.7846 pd=18.84 as=6.8636 ps=16.6 w=4.38 l=0.5
X172 out s2 fc1 fc1 sky130_fd_pr__pfet_g5v0d10v5 ad=2.7846 pd=18.84 as=6.8636 ps=16.6 w=4.38 l=0.5
X173 fc1 s1 VP VP sky130_fd_pr__pfet_g5v0d10v5 ad=2.7846 pd=18.84 as=6.8636 ps=16.6 w=4.38 l=0.5
X174 VP s1 fc1 VP sky130_fd_pr__pfet_g5v0d10v5 ad=6.8636 pd=16.6 as=2.7846 ps=18.84 w=4.38 l=0.5
X175 fc2 s4 VN.t2560 VN.t16 sky130_fd_pr__nfet_g5v0d10v5 ad=2.7846 pd=18.84 as=6.8636 ps=16.6 w=4.38 l=0.5
X176 fc1 s2 out fc1 sky130_fd_pr__pfet_g5v0d10v5 ad=6.8636 pd=16.6 as=2.7846 ps=18.84 w=4.38 l=0.5
X177 fc1 s2 out fc1 sky130_fd_pr__pfet_g5v0d10v5 ad=6.8636 pd=16.6 as=2.7846 ps=18.84 w=4.38 l=0.5
X178 fc1 s1 VP VP sky130_fd_pr__pfet_g5v0d10v5 ad=2.0274 pd=14.09 as=6.8636 ps=16.6 w=4.38 l=0.5
X179 fc1 s1 VP VP sky130_fd_pr__pfet_g5v0d10v5 ad=2.7846 pd=18.84 as=6.8636 ps=16.6 w=4.38 l=0.5
X180 VP s1 fc1 VP sky130_fd_pr__pfet_g5v0d10v5 ad=6.8636 pd=16.6 as=2.7846 ps=18.84 w=4.38 l=0.5
X181 VN.t2559 s4 fc2 VN.t97 sky130_fd_pr__nfet_g5v0d10v5 ad=6.8636 pd=16.6 as=2.7846 ps=18.84 w=4.38 l=0.5
X182 fc1 s1 VP VP sky130_fd_pr__pfet_g5v0d10v5 ad=2.7846 pd=18.84 as=6.8636 ps=16.6 w=4.38 l=0.5
X183 out s2 fc1 fc1 sky130_fd_pr__pfet_g5v0d10v5 ad=2.7846 pd=18.84 as=6.8636 ps=16.6 w=4.38 l=0.5
X184 fc2 s3 out fc2 sky130_fd_pr__nfet_g5v0d10v5 ad=6.8636 pd=16.6 as=2.7846 ps=18.84 w=4.38 l=0.5
X185 out s3 fc2 fc2 sky130_fd_pr__nfet_g5v0d10v5 ad=2.7846 pd=18.84 as=6.8636 ps=16.6 w=4.38 l=0.5
X186 fc2 s3 out fc2 sky130_fd_pr__nfet_g5v0d10v5 ad=6.8636 pd=16.6 as=2.7846 ps=18.84 w=4.38 l=0.5
X187 fc1 s2 out fc1 sky130_fd_pr__pfet_g5v0d10v5 ad=6.8636 pd=16.6 as=2.7846 ps=18.84 w=4.38 l=0.5
X188 VP s1 fc1 VP sky130_fd_pr__pfet_g5v0d10v5 ad=6.8636 pd=16.6 as=2.7846 ps=18.84 w=4.38 l=0.5
X189 VP s1 fc1 VP sky130_fd_pr__pfet_g5v0d10v5 ad=6.8636 pd=16.6 as=2.7846 ps=18.84 w=4.38 l=0.5
X190 fc2 s3 out fc2 sky130_fd_pr__nfet_g5v0d10v5 ad=6.8636 pd=16.6 as=2.7846 ps=18.84 w=4.38 l=0.5
X191 VP s1 fc1 VP sky130_fd_pr__pfet_g5v0d10v5 ad=6.8636 pd=16.6 as=2.7846 ps=18.84 w=4.38 l=0.5
X192 fc2 s4 VN.t2558 VN.t88 sky130_fd_pr__nfet_g5v0d10v5 ad=2.7846 pd=18.84 as=6.8636 ps=16.6 w=4.38 l=0.5
X193 fc1 s2 out fc1 sky130_fd_pr__pfet_g5v0d10v5 ad=6.8636 pd=16.6 as=2.7846 ps=18.84 w=4.38 l=0.5
X194 out s2 fc1 fc1 sky130_fd_pr__pfet_g5v0d10v5 ad=2.7846 pd=18.84 as=6.8636 ps=16.6 w=4.38 l=0.5
X195 VN.t2557 s4 fc2 VN.t4 sky130_fd_pr__nfet_g5v0d10v5 ad=6.8636 pd=16.6 as=2.7846 ps=18.84 w=4.38 l=0.5
X196 VN.t2556 s4 fc2 VN.t49 sky130_fd_pr__nfet_g5v0d10v5 ad=6.8636 pd=16.6 as=2.7846 ps=18.84 w=4.38 l=0.5
X197 out s3 fc2 fc2 sky130_fd_pr__nfet_g5v0d10v5 ad=2.7846 pd=18.84 as=6.8636 ps=16.6 w=4.38 l=0.5
X198 VP s1 fc1 VP sky130_fd_pr__pfet_g5v0d10v5 ad=6.8636 pd=16.6 as=2.7846 ps=18.84 w=4.38 l=0.5
X199 fc2 s3 out fc2 sky130_fd_pr__nfet_g5v0d10v5 ad=6.8636 pd=16.6 as=2.7846 ps=18.84 w=4.38 l=0.5
X200 fc1 s1 VP VP sky130_fd_pr__pfet_g5v0d10v5 ad=2.7846 pd=18.84 as=6.8636 ps=16.6 w=4.38 l=0.5
X201 fc1 s2 out fc1 sky130_fd_pr__pfet_g5v0d10v5 ad=6.8636 pd=16.6 as=2.7846 ps=18.84 w=4.38 l=0.5
X202 VN.t2555 s4 fc2 VN.t30 sky130_fd_pr__nfet_g5v0d10v5 ad=6.8636 pd=16.6 as=2.7846 ps=18.84 w=4.38 l=0.5
X203 out s2 fc1 fc1 sky130_fd_pr__pfet_g5v0d10v5 ad=2.7846 pd=18.84 as=6.8636 ps=16.6 w=4.38 l=0.5
X204 fc1 s1 VP VP sky130_fd_pr__pfet_g5v0d10v5 ad=2.7846 pd=18.84 as=6.8636 ps=16.6 w=4.38 l=0.5
X205 fc2 s3 out fc2 sky130_fd_pr__nfet_g5v0d10v5 ad=6.8636 pd=16.6 as=2.7846 ps=18.84 w=4.38 l=0.5
X206 fc1 s2 out fc1 sky130_fd_pr__pfet_g5v0d10v5 ad=6.2285 pd=16.31 as=2.0274 ps=14.09 w=4.38 l=0.5
X207 out s2 fc1 fc1 sky130_fd_pr__pfet_g5v0d10v5 ad=2.7846 pd=18.84 as=6.8636 ps=16.6 w=4.38 l=0.5
X208 VN.t2554 s4 fc2 VN.t6 sky130_fd_pr__nfet_g5v0d10v5 ad=6.2285 pd=16.31 as=2.0274 ps=14.09 w=4.38 l=0.5
X209 fc1 s1 VP VP sky130_fd_pr__pfet_g5v0d10v5 ad=2.7846 pd=18.84 as=6.8636 ps=16.6 w=4.38 l=0.5
X210 VN.t2553 s4 fc2 VN.t80 sky130_fd_pr__nfet_g5v0d10v5 ad=6.8636 pd=16.6 as=2.7846 ps=18.84 w=4.38 l=0.5
X211 VP s1 fc1 VP sky130_fd_pr__pfet_g5v0d10v5 ad=6.8636 pd=16.6 as=2.7846 ps=18.84 w=4.38 l=0.5
X212 VP s1 fc1 VP sky130_fd_pr__pfet_g5v0d10v5 ad=6.8636 pd=16.6 as=2.7846 ps=18.84 w=4.38 l=0.5
X213 out s2 fc1 fc1 sky130_fd_pr__pfet_g5v0d10v5 ad=2.7846 pd=18.84 as=6.8636 ps=16.6 w=4.38 l=0.5
X214 out s2 fc1 fc1 sky130_fd_pr__pfet_g5v0d10v5 ad=2.7846 pd=18.84 as=6.8636 ps=16.6 w=4.38 l=0.5
X215 fc2 s4 VN.t2552 VN.t82 sky130_fd_pr__nfet_g5v0d10v5 ad=2.7846 pd=18.84 as=6.8636 ps=16.6 w=4.38 l=0.5
X216 fc1 s1 VP VP sky130_fd_pr__pfet_g5v0d10v5 ad=2.7846 pd=18.84 as=6.8636 ps=16.6 w=4.38 l=0.5
X217 out s3 fc2 fc2 sky130_fd_pr__nfet_g5v0d10v5 ad=2.7846 pd=18.84 as=6.8636 ps=16.6 w=4.38 l=0.5
X218 out s3 fc2 fc2 sky130_fd_pr__nfet_g5v0d10v5 ad=2.7846 pd=18.84 as=6.8636 ps=16.6 w=4.38 l=0.5
X219 VP s1 fc1 VP sky130_fd_pr__pfet_g5v0d10v5 ad=6.8636 pd=16.6 as=2.7846 ps=18.84 w=4.38 l=0.5
X220 VN.t2551 s4 fc2 VN.t0 sky130_fd_pr__nfet_g5v0d10v5 ad=6.8636 pd=16.6 as=2.7846 ps=18.84 w=4.38 l=0.5
X221 out s2 fc1 fc1 sky130_fd_pr__pfet_g5v0d10v5 ad=2.0274 pd=14.09 as=6.2285 ps=16.31 w=4.38 l=0.5
X222 fc1 s1 VP VP sky130_fd_pr__pfet_g5v0d10v5 ad=2.7846 pd=18.84 as=6.8636 ps=16.6 w=4.38 l=0.5
X223 fc1 s1 VP VP sky130_fd_pr__pfet_g5v0d10v5 ad=2.7846 pd=18.84 as=6.8636 ps=16.6 w=4.38 l=0.5
X224 VN.t2550 s4 fc2 VN.t73 sky130_fd_pr__nfet_g5v0d10v5 ad=6.8636 pd=16.6 as=2.7846 ps=18.84 w=4.38 l=0.5
X225 VP s1 fc1 VP sky130_fd_pr__pfet_g5v0d10v5 ad=6.8636 pd=16.6 as=2.7846 ps=18.84 w=4.38 l=0.5
X226 fc1 s2 out fc1 sky130_fd_pr__pfet_g5v0d10v5 ad=6.8636 pd=16.6 as=2.7846 ps=18.84 w=4.38 l=0.5
X227 VP s1 fc1 VP sky130_fd_pr__pfet_g5v0d10v5 ad=6.8636 pd=16.6 as=2.7846 ps=18.84 w=4.38 l=0.5
X228 fc1 s2 out fc1 sky130_fd_pr__pfet_g5v0d10v5 ad=6.8636 pd=16.6 as=2.7846 ps=18.84 w=4.38 l=0.5
X229 fc2 s4 VN.t2549 VN.t269 sky130_fd_pr__nfet_g5v0d10v5 ad=2.7846 pd=18.84 as=6.8636 ps=16.6 w=4.38 l=0.5
X230 fc1 s2 out fc1 sky130_fd_pr__pfet_g5v0d10v5 ad=6.2285 pd=16.31 as=2.0274 ps=14.09 w=4.38 l=0.5
X231 fc2 s4 VN.t2548 VN.t51 sky130_fd_pr__nfet_g5v0d10v5 ad=2.0274 pd=14.09 as=6.2285 ps=16.31 w=4.38 l=0.5
X232 fc2 s3 out fc2 sky130_fd_pr__nfet_g5v0d10v5 ad=6.8636 pd=16.6 as=2.7846 ps=18.84 w=4.38 l=0.5
X233 fc1 s2 out fc1 sky130_fd_pr__pfet_g5v0d10v5 ad=6.8636 pd=16.6 as=2.7846 ps=18.84 w=4.38 l=0.5
X234 out s2 fc1 fc1 sky130_fd_pr__pfet_g5v0d10v5 ad=2.7846 pd=18.84 as=6.8636 ps=16.6 w=4.38 l=0.5
X235 fc1 s1 VP VP sky130_fd_pr__pfet_g5v0d10v5 ad=2.7846 pd=18.84 as=6.8636 ps=16.6 w=4.38 l=0.5
X236 VP s1 fc1 VP sky130_fd_pr__pfet_g5v0d10v5 ad=6.8636 pd=16.6 as=2.7846 ps=18.84 w=4.38 l=0.5
X237 out s3 fc2 fc2 sky130_fd_pr__nfet_g5v0d10v5 ad=2.7846 pd=18.84 as=6.8636 ps=16.6 w=4.38 l=0.5
X238 out s2 fc1 fc1 sky130_fd_pr__pfet_g5v0d10v5 ad=2.7846 pd=18.84 as=6.8636 ps=16.6 w=4.38 l=0.5
X239 fc1 s2 out fc1 sky130_fd_pr__pfet_g5v0d10v5 ad=6.8636 pd=16.6 as=2.7846 ps=18.84 w=4.38 l=0.5
X240 fc1 s2 out fc1 sky130_fd_pr__pfet_g5v0d10v5 ad=6.8636 pd=16.6 as=2.7846 ps=18.84 w=4.38 l=0.5
X241 VN.t2547 s4 fc2 VN.t71 sky130_fd_pr__nfet_g5v0d10v5 ad=6.8636 pd=16.6 as=2.7846 ps=18.84 w=4.38 l=0.5
X242 fc2 s3 out fc2 sky130_fd_pr__nfet_g5v0d10v5 ad=6.8636 pd=16.6 as=2.7846 ps=18.84 w=4.38 l=0.5
X243 fc1 s1 VP VP sky130_fd_pr__pfet_g5v0d10v5 ad=2.7846 pd=18.84 as=6.8636 ps=16.6 w=4.38 l=0.5
X244 fc1 s1 VP VP sky130_fd_pr__pfet_g5v0d10v5 ad=2.7846 pd=18.84 as=6.2285 ps=16.31 w=4.38 l=0.5
X245 out s3 fc2 fc2 sky130_fd_pr__nfet_g5v0d10v5 ad=2.7846 pd=18.84 as=6.8636 ps=16.6 w=4.38 l=0.5
X246 fc2 s3 out fc2 sky130_fd_pr__nfet_g5v0d10v5 ad=6.8636 pd=16.6 as=2.7846 ps=18.84 w=4.38 l=0.5
X247 fc1 s2 out fc1 sky130_fd_pr__pfet_g5v0d10v5 ad=6.8636 pd=16.6 as=2.7846 ps=18.84 w=4.38 l=0.5
X248 out s3 fc2 fc2 sky130_fd_pr__nfet_g5v0d10v5 ad=2.0274 pd=14.09 as=6.2285 ps=16.31 w=4.38 l=0.5
X249 fc1 s1 VP VP sky130_fd_pr__pfet_g5v0d10v5 ad=2.7846 pd=18.84 as=6.8636 ps=16.6 w=4.38 l=0.5
X250 VP s1 fc1 VP sky130_fd_pr__pfet_g5v0d10v5 ad=6.8636 pd=16.6 as=2.7846 ps=18.84 w=4.38 l=0.5
X251 fc1 s1 VP VP sky130_fd_pr__pfet_g5v0d10v5 ad=2.7846 pd=18.84 as=6.8636 ps=16.6 w=4.38 l=0.5
X252 out s2 fc1 fc1 sky130_fd_pr__pfet_g5v0d10v5 ad=2.7846 pd=18.84 as=6.8636 ps=16.6 w=4.38 l=0.5
X253 VN.t2546 s4 fc2 VN.t55 sky130_fd_pr__nfet_g5v0d10v5 ad=6.8636 pd=16.6 as=2.7846 ps=18.84 w=4.38 l=0.5
X254 fc1 s1 VP VP sky130_fd_pr__pfet_g5v0d10v5 ad=2.7846 pd=18.84 as=6.8636 ps=16.6 w=4.38 l=0.5
X255 VP s1 fc1 VP sky130_fd_pr__pfet_g5v0d10v5 ad=6.8636 pd=16.6 as=2.0274 ps=14.09 w=4.38 l=0.5
X256 out s2 fc1 fc1 sky130_fd_pr__pfet_g5v0d10v5 ad=2.7846 pd=18.84 as=6.8636 ps=16.6 w=4.38 l=0.5
X257 fc1 s2 out fc1 sky130_fd_pr__pfet_g5v0d10v5 ad=6.8636 pd=16.6 as=2.7846 ps=18.84 w=4.38 l=0.5
X258 fc2 s4 VN.t2545 VN.t66 sky130_fd_pr__nfet_g5v0d10v5 ad=2.7846 pd=18.84 as=6.8636 ps=16.6 w=4.38 l=0.5
X259 fc2 s3 out fc2 sky130_fd_pr__nfet_g5v0d10v5 ad=6.8636 pd=16.6 as=2.7846 ps=18.84 w=4.38 l=0.5
X260 out s2 fc1 fc1 sky130_fd_pr__pfet_g5v0d10v5 ad=2.7846 pd=18.84 as=6.8636 ps=16.6 w=4.38 l=0.5
X261 fc1 s1 VP VP sky130_fd_pr__pfet_g5v0d10v5 ad=2.7846 pd=18.84 as=6.8636 ps=16.6 w=4.38 l=0.5
X262 VP s1 fc1 VP sky130_fd_pr__pfet_g5v0d10v5 ad=6.8636 pd=16.6 as=2.7846 ps=18.84 w=4.38 l=0.5
X263 VP s1 fc1 VP sky130_fd_pr__pfet_g5v0d10v5 ad=6.8636 pd=16.6 as=2.7846 ps=18.84 w=4.38 l=0.5
X264 fc2 s3 out fc2 sky130_fd_pr__nfet_g5v0d10v5 ad=6.8636 pd=16.6 as=2.7846 ps=18.84 w=4.38 l=0.5
X265 fc1 s1 VP VP sky130_fd_pr__pfet_g5v0d10v5 ad=2.7846 pd=18.84 as=6.8636 ps=16.6 w=4.38 l=0.5
X266 fc1 s2 out fc1 sky130_fd_pr__pfet_g5v0d10v5 ad=6.8636 pd=16.6 as=2.7846 ps=18.84 w=4.38 l=0.5
X267 fc2 s3 out fc2 sky130_fd_pr__nfet_g5v0d10v5 ad=6.8636 pd=16.6 as=2.0274 ps=14.09 w=4.38 l=0.5
X268 fc1 s1 VP VP sky130_fd_pr__pfet_g5v0d10v5 ad=2.7846 pd=18.84 as=6.8636 ps=16.6 w=4.38 l=0.5
X269 VN.t2544 s4 fc2 VN.t63 sky130_fd_pr__nfet_g5v0d10v5 ad=6.8636 pd=16.6 as=2.7846 ps=18.84 w=4.38 l=0.5
X270 fc2 s3 out fc2 sky130_fd_pr__nfet_g5v0d10v5 ad=6.8636 pd=16.6 as=2.7846 ps=18.84 w=4.38 l=0.5
X271 VP s1 fc1 VP sky130_fd_pr__pfet_g5v0d10v5 ad=6.8636 pd=16.6 as=2.7846 ps=18.84 w=4.38 l=0.5
X272 VN.t2543 s4 fc2 VN.t350 sky130_fd_pr__nfet_g5v0d10v5 ad=6.8636 pd=16.6 as=2.7846 ps=18.84 w=4.38 l=0.5
X273 VP s1 fc1 VP sky130_fd_pr__pfet_g5v0d10v5 ad=6.8636 pd=16.6 as=2.7846 ps=18.84 w=4.38 l=0.5
X274 fc2 s4 VN.t2542 VN.t94 sky130_fd_pr__nfet_g5v0d10v5 ad=2.7846 pd=18.84 as=6.8636 ps=16.6 w=4.38 l=0.5
X275 VP s1 fc1 VP sky130_fd_pr__pfet_g5v0d10v5 ad=6.8636 pd=16.6 as=2.7846 ps=18.84 w=4.38 l=0.5
X276 out s2 fc1 fc1 sky130_fd_pr__pfet_g5v0d10v5 ad=2.7846 pd=18.84 as=6.8636 ps=16.6 w=4.38 l=0.5
X277 out s2 fc1 fc1 sky130_fd_pr__pfet_g5v0d10v5 ad=2.7846 pd=18.84 as=6.8636 ps=16.6 w=4.38 l=0.5
X278 VN.t2541 s4 fc2 VN.t30 sky130_fd_pr__nfet_g5v0d10v5 ad=6.8636 pd=16.6 as=2.7846 ps=18.84 w=4.38 l=0.5
X279 VN.t2540 s4 fc2 VN.t71 sky130_fd_pr__nfet_g5v0d10v5 ad=6.8636 pd=16.6 as=2.7846 ps=18.84 w=4.38 l=0.5
X280 out s3 fc2 fc2 sky130_fd_pr__nfet_g5v0d10v5 ad=2.7846 pd=18.84 as=6.8636 ps=16.6 w=4.38 l=0.5
X281 fc2 s3 out fc2 sky130_fd_pr__nfet_g5v0d10v5 ad=6.8636 pd=16.6 as=2.7846 ps=18.84 w=4.38 l=0.5
X282 VP s1 fc1 VP sky130_fd_pr__pfet_g5v0d10v5 ad=6.8636 pd=16.6 as=2.7846 ps=18.84 w=4.38 l=0.5
X283 fc1 s1 VP VP sky130_fd_pr__pfet_g5v0d10v5 ad=2.7846 pd=18.84 as=6.8636 ps=16.6 w=4.38 l=0.5
X284 VN.t2539 s4 fc2 VN.t8 sky130_fd_pr__nfet_g5v0d10v5 ad=6.2285 pd=16.31 as=2.0274 ps=14.09 w=4.38 l=0.5
X285 fc2 s3 out fc2 sky130_fd_pr__nfet_g5v0d10v5 ad=6.8636 pd=16.6 as=2.7846 ps=18.84 w=4.38 l=0.5
X286 out s3 fc2 fc2 sky130_fd_pr__nfet_g5v0d10v5 ad=2.7846 pd=18.84 as=6.8636 ps=16.6 w=4.38 l=0.5
X287 fc1 s2 out fc1 sky130_fd_pr__pfet_g5v0d10v5 ad=6.8636 pd=16.6 as=2.7846 ps=18.84 w=4.38 l=0.5
X288 fc1 s1 VP VP sky130_fd_pr__pfet_g5v0d10v5 ad=2.7846 pd=18.84 as=6.8636 ps=16.6 w=4.38 l=0.5
X289 out s3 fc2 fc2 sky130_fd_pr__nfet_g5v0d10v5 ad=2.7846 pd=18.84 as=6.8636 ps=16.6 w=4.38 l=0.5
X290 fc1 s2 out fc1 sky130_fd_pr__pfet_g5v0d10v5 ad=6.8636 pd=16.6 as=2.7846 ps=18.84 w=4.38 l=0.5
X291 VP s1 fc1 VP sky130_fd_pr__pfet_g5v0d10v5 ad=6.8636 pd=16.6 as=2.7846 ps=18.84 w=4.38 l=0.5
X292 fc1 s2 out fc1 sky130_fd_pr__pfet_g5v0d10v5 ad=6.8636 pd=16.6 as=2.7846 ps=18.84 w=4.38 l=0.5
X293 fc2 s4 VN.t2538 VN.t24 sky130_fd_pr__nfet_g5v0d10v5 ad=2.7846 pd=18.84 as=6.8636 ps=16.6 w=4.38 l=0.5
X294 fc1 s2 out fc1 sky130_fd_pr__pfet_g5v0d10v5 ad=6.8636 pd=16.6 as=2.7846 ps=18.84 w=4.38 l=0.5
X295 out s2 fc1 fc1 sky130_fd_pr__pfet_g5v0d10v5 ad=2.7846 pd=18.84 as=6.8636 ps=16.6 w=4.38 l=0.5
X296 out s2 fc1 fc1 sky130_fd_pr__pfet_g5v0d10v5 ad=2.7846 pd=18.84 as=6.8636 ps=16.6 w=4.38 l=0.5
X297 VP s1 fc1 VP sky130_fd_pr__pfet_g5v0d10v5 ad=6.8636 pd=16.6 as=2.7846 ps=18.84 w=4.38 l=0.5
X298 fc1 s1 VP VP sky130_fd_pr__pfet_g5v0d10v5 ad=2.7846 pd=18.84 as=6.8636 ps=16.6 w=4.38 l=0.5
X299 fc2 s3 out fc2 sky130_fd_pr__nfet_g5v0d10v5 ad=6.8636 pd=16.6 as=2.7846 ps=18.84 w=4.38 l=0.5