* NGSPICE file created from mag_files/POSTLAYOUT/pmos_flat_24x24.ext - technology: sky130A

.subckt mag_files/POSTLAYOUT/pmos_flat_24x24 G D PW S
X0 D.t1103 G.t0 S.t1150 S.t256 sky130_fd_pr__pfet_g5v0d10v5 ad=0p pd=0u as=0p ps=0u w=4.38e+06u l=500000u
X1 S.t1149 G.t1 D.t1102 S.t52 sky130_fd_pr__pfet_g5v0d10v5 ad=0p pd=0u as=0p ps=0u w=4.38e+06u l=500000u
X2 S.t1143 G.t2 D.t1101 S.t60 sky130_fd_pr__pfet_g5v0d10v5 ad=0p pd=0u as=0p ps=0u w=4.38e+06u l=500000u
X3 S.t1148 G.t3 D.t1100 S.t68 sky130_fd_pr__pfet_g5v0d10v5 ad=0p pd=0u as=0p ps=0u w=4.38e+06u l=500000u
X4 S.t1147 G.t4 D.t1099 S.t58 sky130_fd_pr__pfet_g5v0d10v5 ad=0p pd=0u as=0p ps=0u w=4.38e+06u l=500000u
X5 S.t1146 G.t5 D.t1098 S.t65 sky130_fd_pr__pfet_g5v0d10v5 ad=0p pd=0u as=0p ps=0u w=4.38e+06u l=500000u
X6 D.t1097 G.t6 S.t1145 S.t290 sky130_fd_pr__pfet_g5v0d10v5 ad=0p pd=0u as=0p ps=0u w=4.38e+06u l=500000u
X7 D.t1096 G.t7 S.t1144 S.t99 sky130_fd_pr__pfet_g5v0d10v5 ad=0p pd=0u as=0p ps=0u w=4.38e+06u l=500000u
X8 D.t1095 G.t8 S.t1142 S.t77 sky130_fd_pr__pfet_g5v0d10v5 ad=0p pd=0u as=0p ps=0u w=4.38e+06u l=500000u
X9 D.t1094 G.t9 S.t1141 S.t56 sky130_fd_pr__pfet_g5v0d10v5 ad=0p pd=0u as=0p ps=0u w=4.38e+06u l=500000u
X10 S.t1090 G.t10 D.t1093 S.t24 sky130_fd_pr__pfet_g5v0d10v5 ad=0p pd=0u as=0p ps=0u w=4.38e+06u l=500000u
X11 D.t1092 G.t11 S.t1139 S.t0 sky130_fd_pr__pfet_g5v0d10v5 ad=0p pd=0u as=0p ps=0u w=4.38e+06u l=500000u
X12 D.t1091 G.t12 S.t1138 S.t290 sky130_fd_pr__pfet_g5v0d10v5 ad=0p pd=0u as=0p ps=0u w=4.38e+06u l=500000u
X13 S.t1140 G.t13 D.t1090 S.t56 sky130_fd_pr__pfet_g5v0d10v5 ad=0p pd=0u as=0p ps=0u w=4.38e+06u l=500000u
X14 D.t1089 G.t14 S.t1137 S.t81 sky130_fd_pr__pfet_g5v0d10v5 ad=0p pd=0u as=0p ps=0u w=4.38e+06u l=500000u
X15 D.t1088 G.t15 S.t1088 S.t200 sky130_fd_pr__pfet_g5v0d10v5 ad=0p pd=0u as=0p ps=0u w=4.38e+06u l=500000u
X16 S.t1087 G.t16 D.t1087 S.t6 sky130_fd_pr__pfet_g5v0d10v5 ad=0p pd=0u as=0p ps=0u w=4.38e+06u l=500000u
X17 D.t1086 G.t17 S.t1091 S.t32 sky130_fd_pr__pfet_g5v0d10v5 ad=0p pd=0u as=0p ps=0u w=4.38e+06u l=500000u
X18 D.t1085 G.t18 S.t1136 S.t16 sky130_fd_pr__pfet_g5v0d10v5 ad=0p pd=0u as=0p ps=0u w=4.38e+06u l=500000u
X19 S.t1135 G.t19 D.t1084 S.t45 sky130_fd_pr__pfet_g5v0d10v5 ad=0p pd=0u as=0p ps=0u w=4.38e+06u l=500000u
X20 S.t1134 G.t20 D.t1083 S.t4 sky130_fd_pr__pfet_g5v0d10v5 ad=0p pd=0u as=0p ps=0u w=4.38e+06u l=500000u
X21 S.t1133 G.t21 D.t1082 S.t34 sky130_fd_pr__pfet_g5v0d10v5 ad=0p pd=0u as=0p ps=0u w=4.38e+06u l=500000u
X22 S.t1132 G.t22 D.t1081 S.t0 sky130_fd_pr__pfet_g5v0d10v5 ad=0p pd=0u as=0p ps=0u w=4.38e+06u l=500000u
X23 D.t1080 G.t23 S.t1131 S.t27 sky130_fd_pr__pfet_g5v0d10v5 ad=0p pd=0u as=0p ps=0u w=4.38e+06u l=500000u
X24 S.t1130 G.t24 D.t1079 S.t4 sky130_fd_pr__pfet_g5v0d10v5 ad=0p pd=0u as=0p ps=0u w=4.38e+06u l=500000u
X25 S.t1129 G.t25 D.t1078 S.t16 sky130_fd_pr__pfet_g5v0d10v5 ad=0p pd=0u as=0p ps=0u w=4.38e+06u l=500000u
X26 D.t1077 G.t26 S.t1128 S.t4 sky130_fd_pr__pfet_g5v0d10v5 ad=0p pd=0u as=0p ps=0u w=4.38e+06u l=500000u
X27 D.t1076 G.t27 S.t1127 S.t24 sky130_fd_pr__pfet_g5v0d10v5 ad=0p pd=0u as=0p ps=0u w=4.38e+06u l=500000u
X28 D.t1075 G.t28 S.t1126 S.t36 sky130_fd_pr__pfet_g5v0d10v5 ad=0p pd=0u as=0p ps=0u w=4.38e+06u l=500000u
X29 D.t1074 G.t29 S.t1125 S.t18 sky130_fd_pr__pfet_g5v0d10v5 ad=0p pd=0u as=0p ps=0u w=4.38e+06u l=500000u
X30 S.t1089 G.t30 D.t1073 S.t32 sky130_fd_pr__pfet_g5v0d10v5 ad=0p pd=0u as=0p ps=0u w=4.38e+06u l=500000u
X31 S.t1124 G.t31 D.t1072 S.t22 sky130_fd_pr__pfet_g5v0d10v5 ad=0p pd=0u as=0p ps=0u w=4.38e+06u l=500000u
X32 S.t1123 G.t32 D.t1071 S.t24 sky130_fd_pr__pfet_g5v0d10v5 ad=0p pd=0u as=0p ps=0u w=4.38e+06u l=500000u
X33 D.t1070 G.t33 S.t1122 S.t56 sky130_fd_pr__pfet_g5v0d10v5 ad=0p pd=0u as=0p ps=0u w=4.38e+06u l=500000u
X34 D.t1069 G.t34 S.t1094 S.t30 sky130_fd_pr__pfet_g5v0d10v5 ad=0p pd=0u as=0p ps=0u w=4.38e+06u l=500000u
X35 S.t1121 G.t35 D.t1068 S.t27 sky130_fd_pr__pfet_g5v0d10v5 ad=0p pd=0u as=0p ps=0u w=4.38e+06u l=500000u
X36 D.t1067 G.t36 S.t1120 S.t6 sky130_fd_pr__pfet_g5v0d10v5 ad=0p pd=0u as=0p ps=0u w=4.38e+06u l=500000u
X37 S.t1119 G.t37 D.t1066 S.t4 sky130_fd_pr__pfet_g5v0d10v5 ad=0p pd=0u as=0p ps=0u w=4.38e+06u l=500000u
X38 D.t1065 G.t38 S.t1118 S.t45 sky130_fd_pr__pfet_g5v0d10v5 ad=0p pd=0u as=0p ps=0u w=4.38e+06u l=500000u
X39 S.t1117 G.t39 D.t1064 S.t24 sky130_fd_pr__pfet_g5v0d10v5 ad=0p pd=0u as=0p ps=0u w=4.38e+06u l=500000u
X40 D.t1063 G.t40 S.t1115 S.t14 sky130_fd_pr__pfet_g5v0d10v5 ad=0p pd=0u as=0p ps=0u w=4.38e+06u l=500000u
X41 D.t1062 G.t41 S.t1116 S.t68 sky130_fd_pr__pfet_g5v0d10v5 ad=0p pd=0u as=0p ps=0u w=4.38e+06u l=500000u
X42 D.t1061 G.t42 S.t1114 S.t20 sky130_fd_pr__pfet_g5v0d10v5 ad=0p pd=0u as=0p ps=0u w=4.38e+06u l=500000u
X43 S.t1111 G.t43 D.t1060 S.t14 sky130_fd_pr__pfet_g5v0d10v5 ad=0p pd=0u as=0p ps=0u w=4.38e+06u l=500000u
X44 D.t1059 G.t44 S.t1113 S.t65 sky130_fd_pr__pfet_g5v0d10v5 ad=0p pd=0u as=0p ps=0u w=4.38e+06u l=500000u
X45 D.t1058 G.t45 S.t1112 S.t34 sky130_fd_pr__pfet_g5v0d10v5 ad=0p pd=0u as=0p ps=0u w=4.38e+06u l=500000u
X46 D.t1057 G.t46 S.t1110 S.t32 sky130_fd_pr__pfet_g5v0d10v5 ad=0p pd=0u as=0p ps=0u w=4.38e+06u l=500000u
X47 D.t1056 G.t47 S.t1109 S.t180 sky130_fd_pr__pfet_g5v0d10v5 ad=0p pd=0u as=0p ps=0u w=4.38e+06u l=500000u
X48 S.t1108 G.t48 D.t1055 S.t68 sky130_fd_pr__pfet_g5v0d10v5 ad=0p pd=0u as=0p ps=0u w=4.38e+06u l=500000u
X49 S.t1107 G.t49 D.t1054 S.t290 sky130_fd_pr__pfet_g5v0d10v5 ad=0p pd=0u as=0p ps=0u w=4.38e+06u l=500000u
X50 D.t1053 G.t50 S.t1106 S.t27 sky130_fd_pr__pfet_g5v0d10v5 ad=0p pd=0u as=0p ps=0u w=4.38e+06u l=500000u
X51 D.t1052 G.t51 S.t1105 S.t256 sky130_fd_pr__pfet_g5v0d10v5 ad=0p pd=0u as=0p ps=0u w=4.38e+06u l=500000u
X52 S.t1104 G.t52 D.t1051 S.t52 sky130_fd_pr__pfet_g5v0d10v5 ad=0p pd=0u as=0p ps=0u w=4.38e+06u l=500000u
X53 S.t1103 G.t53 D.t1050 S.t65 sky130_fd_pr__pfet_g5v0d10v5 ad=0p pd=0u as=0p ps=0u w=4.38e+06u l=500000u
X54 S.t1102 G.t54 D.t1049 S.t60 sky130_fd_pr__pfet_g5v0d10v5 ad=0p pd=0u as=0p ps=0u w=4.38e+06u l=500000u
X55 D.t1048 G.t55 S.t1101 S.t4 sky130_fd_pr__pfet_g5v0d10v5 ad=0p pd=0u as=0p ps=0u w=4.38e+06u l=500000u
X56 D.t1047 G.t56 S.t1083 S.t99 sky130_fd_pr__pfet_g5v0d10v5 ad=0p pd=0u as=0p ps=0u w=4.38e+06u l=500000u
X57 D.t1046 G.t57 S.t1100 S.t56 sky130_fd_pr__pfet_g5v0d10v5 ad=0p pd=0u as=0p ps=0u w=4.38e+06u l=500000u
X58 D.t1045 G.t58 S.t1086 S.t77 sky130_fd_pr__pfet_g5v0d10v5 ad=0p pd=0u as=0p ps=0u w=4.38e+06u l=500000u
X59 D.t1044 G.t59 S.t1099 S.t180 sky130_fd_pr__pfet_g5v0d10v5 ad=0p pd=0u as=0p ps=0u w=4.38e+06u l=500000u
X60 D.t1043 G.t60 S.t1095 S.t6 sky130_fd_pr__pfet_g5v0d10v5 ad=0p pd=0u as=0p ps=0u w=4.38e+06u l=500000u
X61 D.t1042 G.t61 S.t1098 S.t36 sky130_fd_pr__pfet_g5v0d10v5 ad=0p pd=0u as=0p ps=0u w=4.38e+06u l=500000u
X62 D.t1041 G.t62 S.t1097 S.t45 sky130_fd_pr__pfet_g5v0d10v5 ad=0p pd=0u as=0p ps=0u w=4.38e+06u l=500000u
X63 D.t1040 G.t63 S.t1096 S.t12 sky130_fd_pr__pfet_g5v0d10v5 ad=0p pd=0u as=0p ps=0u w=4.38e+06u l=500000u
X64 D.t1039 G.t64 S.t1093 S.t4 sky130_fd_pr__pfet_g5v0d10v5 ad=0p pd=0u as=0p ps=0u w=4.38e+06u l=500000u
X65 D.t1038 G.t65 S.t1092 S.t14 sky130_fd_pr__pfet_g5v0d10v5 ad=0p pd=0u as=0p ps=0u w=4.38e+06u l=500000u
X66 D.t1037 G.t66 S.t1085 S.t0 sky130_fd_pr__pfet_g5v0d10v5 ad=0p pd=0u as=0p ps=0u w=4.38e+06u l=500000u
X67 D.t1036 G.t67 S.t1084 S.t290 sky130_fd_pr__pfet_g5v0d10v5 ad=0p pd=0u as=0p ps=0u w=4.38e+06u l=500000u
X68 D.t1035 G.t68 S.t1082 S.t68 sky130_fd_pr__pfet_g5v0d10v5 ad=0p pd=0u as=0p ps=0u w=4.38e+06u l=500000u
X69 D.t1034 G.t69 S.t1081 S.t200 sky130_fd_pr__pfet_g5v0d10v5 ad=0p pd=0u as=0p ps=0u w=4.38e+06u l=500000u
X70 D.t1033 G.t70 S.t1074 S.t27 sky130_fd_pr__pfet_g5v0d10v5 ad=0p pd=0u as=0p ps=0u w=4.38e+06u l=500000u
X71 D.t1032 G.t71 S.t1076 S.t65 sky130_fd_pr__pfet_g5v0d10v5 ad=0p pd=0u as=0p ps=0u w=4.38e+06u l=500000u
X72 D.t1031 G.t72 S.t1075 S.t32 sky130_fd_pr__pfet_g5v0d10v5 ad=0p pd=0u as=0p ps=0u w=4.38e+06u l=500000u
X73 S.t1080 G.t73 D.t1030 S.t10 sky130_fd_pr__pfet_g5v0d10v5 ad=0p pd=0u as=0p ps=0u w=4.38e+06u l=500000u
X74 D.t1029 G.t74 S.t1079 S.t180 sky130_fd_pr__pfet_g5v0d10v5 ad=0p pd=0u as=0p ps=0u w=4.38e+06u l=500000u
X75 D.t1028 G.t75 S.t1078 S.t27 sky130_fd_pr__pfet_g5v0d10v5 ad=0p pd=0u as=0p ps=0u w=4.38e+06u l=500000u
X76 D.t1027 G.t76 S.t1077 S.t24 sky130_fd_pr__pfet_g5v0d10v5 ad=0p pd=0u as=0p ps=0u w=4.38e+06u l=500000u
X77 D.t1026 G.t77 S.t1073 S.t4 sky130_fd_pr__pfet_g5v0d10v5 ad=0p pd=0u as=0p ps=0u w=4.38e+06u l=500000u
X78 D.t1025 G.t78 S.t1072 S.t36 sky130_fd_pr__pfet_g5v0d10v5 ad=0p pd=0u as=0p ps=0u w=4.38e+06u l=500000u
X79 S.t1071 G.t79 D.t1024 S.t95 sky130_fd_pr__pfet_g5v0d10v5 ad=0p pd=0u as=0p ps=0u w=4.38e+06u l=500000u
X80 S.t1070 G.t80 D.t1023 S.t12 sky130_fd_pr__pfet_g5v0d10v5 ad=0p pd=0u as=0p ps=0u w=4.38e+06u l=500000u
X81 D.t1022 G.t81 S.t1069 S.t24 sky130_fd_pr__pfet_g5v0d10v5 ad=0p pd=0u as=0p ps=0u w=4.38e+06u l=500000u
X82 D.t1021 G.t82 S.t1068 S.t18 sky130_fd_pr__pfet_g5v0d10v5 ad=0p pd=0u as=0p ps=0u w=4.38e+06u l=500000u
X83 D.t1020 G.t83 S.t1067 S.t56 sky130_fd_pr__pfet_g5v0d10v5 ad=0p pd=0u as=0p ps=0u w=4.38e+06u l=500000u
X84 D.t1019 G.t84 S.t1066 S.t30 sky130_fd_pr__pfet_g5v0d10v5 ad=0p pd=0u as=0p ps=0u w=4.38e+06u l=500000u
X85 D.t1018 G.t85 S.t1065 S.t52 sky130_fd_pr__pfet_g5v0d10v5 ad=0p pd=0u as=0p ps=0u w=4.38e+06u l=500000u
X86 S.t1020 G.t86 D.t1017 S.t20 sky130_fd_pr__pfet_g5v0d10v5 ad=0p pd=0u as=0p ps=0u w=4.38e+06u l=500000u
X87 D.t1016 G.t87 S.t1064 S.t6 sky130_fd_pr__pfet_g5v0d10v5 ad=0p pd=0u as=0p ps=0u w=4.38e+06u l=500000u
X88 S.t1063 G.t88 D.t1015 S.t20 sky130_fd_pr__pfet_g5v0d10v5 ad=0p pd=0u as=0p ps=0u w=4.38e+06u l=500000u
X89 D.t1014 G.t89 S.t1062 S.t38 sky130_fd_pr__pfet_g5v0d10v5 ad=0p pd=0u as=0p ps=0u w=4.38e+06u l=500000u
X90 D.t1013 G.t90 S.t1061 S.t12 sky130_fd_pr__pfet_g5v0d10v5 ad=0p pd=0u as=0p ps=0u w=4.38e+06u l=500000u
X91 D.t1012 G.t91 S.t1060 S.t45 sky130_fd_pr__pfet_g5v0d10v5 ad=0p pd=0u as=0p ps=0u w=4.38e+06u l=500000u
X92 S.t1059 G.t92 D.t1011 S.t256 sky130_fd_pr__pfet_g5v0d10v5 ad=0p pd=0u as=0p ps=0u w=4.38e+06u l=500000u
X93 D.t1010 G.t93 S.t1058 S.t52 sky130_fd_pr__pfet_g5v0d10v5 ad=0p pd=0u as=0p ps=0u w=4.38e+06u l=500000u
X94 D.t1009 G.t94 S.t1057 S.t42 sky130_fd_pr__pfet_g5v0d10v5 ad=0p pd=0u as=0p ps=0u w=4.38e+06u l=500000u
X95 D.t1008 G.t95 S.t1056 S.t34 sky130_fd_pr__pfet_g5v0d10v5 ad=0p pd=0u as=0p ps=0u w=4.38e+06u l=500000u
X96 D.t1007 G.t96 S.t1055 S.t180 sky130_fd_pr__pfet_g5v0d10v5 ad=0p pd=0u as=0p ps=0u w=4.38e+06u l=500000u
X97 D.t1006 G.t97 S.t1054 S.t20 sky130_fd_pr__pfet_g5v0d10v5 ad=0p pd=0u as=0p ps=0u w=4.38e+06u l=500000u
X98 S.t1053 G.t98 D.t1005 S.t36 sky130_fd_pr__pfet_g5v0d10v5 ad=0p pd=0u as=0p ps=0u w=4.38e+06u l=500000u
X99 S.t1015 G.t99 D.t1004 S.t18 sky130_fd_pr__pfet_g5v0d10v5 ad=0p pd=0u as=0p ps=0u w=4.38e+06u l=500000u
X100 D.t1003 G.t100 S.t1014 S.t256 sky130_fd_pr__pfet_g5v0d10v5 ad=0p pd=0u as=0p ps=0u w=4.38e+06u l=500000u
X101 S.t1052 G.t101 D.t1002 S.t30 sky130_fd_pr__pfet_g5v0d10v5 ad=0p pd=0u as=0p ps=0u w=4.38e+06u l=500000u
X102 S.t1051 G.t102 D.t1001 S.t52 sky130_fd_pr__pfet_g5v0d10v5 ad=0p pd=0u as=0p ps=0u w=4.38e+06u l=500000u
X103 S.t1021 G.t103 D.t1000 S.t77 sky130_fd_pr__pfet_g5v0d10v5 ad=0p pd=0u as=0p ps=0u w=4.38e+06u l=500000u
X104 S.t1050 G.t104 D.t999 S.t290 sky130_fd_pr__pfet_g5v0d10v5 ad=0p pd=0u as=0p ps=0u w=4.38e+06u l=500000u
X105 D.t998 G.t105 S.t1049 S.t77 sky130_fd_pr__pfet_g5v0d10v5 ad=0p pd=0u as=0p ps=0u w=4.38e+06u l=500000u
X106 S.t1048 G.t106 D.t997 S.t200 sky130_fd_pr__pfet_g5v0d10v5 ad=0p pd=0u as=0p ps=0u w=4.38e+06u l=500000u
X107 S.t1047 G.t107 D.t996 S.t20 sky130_fd_pr__pfet_g5v0d10v5 ad=0p pd=0u as=0p ps=0u w=4.38e+06u l=500000u
X108 D.t995 G.t108 S.t1046 S.t95 sky130_fd_pr__pfet_g5v0d10v5 ad=0p pd=0u as=0p ps=0u w=4.38e+06u l=500000u
X109 D.t994 G.t109 S.t1045 S.t290 sky130_fd_pr__pfet_g5v0d10v5 ad=0p pd=0u as=0p ps=0u w=4.38e+06u l=500000u
X110 D.t993 G.t110 S.t1044 S.t0 sky130_fd_pr__pfet_g5v0d10v5 ad=0p pd=0u as=0p ps=0u w=4.38e+06u l=500000u
X111 S.t1043 G.t111 D.t992 S.t256 sky130_fd_pr__pfet_g5v0d10v5 ad=0p pd=0u as=0p ps=0u w=4.38e+06u l=500000u
X112 S.t1042 G.t112 D.t991 S.t180 sky130_fd_pr__pfet_g5v0d10v5 ad=0p pd=0u as=0p ps=0u w=4.38e+06u l=500000u
X113 D.t990 G.t113 S.t1041 S.t200 sky130_fd_pr__pfet_g5v0d10v5 ad=0p pd=0u as=0p ps=0u w=4.38e+06u l=500000u
X114 S.t1040 G.t114 D.t989 S.t191 sky130_fd_pr__pfet_g5v0d10v5 ad=0p pd=0u as=0p ps=0u w=4.38e+06u l=500000u
X115 D.t988 G.t115 S.t1039 S.t52 sky130_fd_pr__pfet_g5v0d10v5 ad=0p pd=0u as=0p ps=0u w=4.38e+06u l=500000u
X116 S.t1038 G.t116 D.t987 S.t36 sky130_fd_pr__pfet_g5v0d10v5 ad=0p pd=0u as=0p ps=0u w=4.38e+06u l=500000u
X117 S.t1037 G.t117 D.t986 S.t180 sky130_fd_pr__pfet_g5v0d10v5 ad=0p pd=0u as=0p ps=0u w=4.38e+06u l=500000u
X118 D.t985 G.t118 S.t1036 S.t240 sky130_fd_pr__pfet_g5v0d10v5 ad=0p pd=0u as=0p ps=0u w=4.38e+06u l=500000u
X119 S.t1035 G.t119 D.t984 S.t24 sky130_fd_pr__pfet_g5v0d10v5 ad=0p pd=0u as=0p ps=0u w=4.38e+06u l=500000u
X120 D.t983 G.t120 S.t1034 S.t256 sky130_fd_pr__pfet_g5v0d10v5 ad=0p pd=0u as=0p ps=0u w=4.38e+06u l=500000u
X121 S.t1033 G.t121 D.t982 S.t18 sky130_fd_pr__pfet_g5v0d10v5 ad=0p pd=0u as=0p ps=0u w=4.38e+06u l=500000u
X122 S.t1032 G.t122 D.t981 S.t30 sky130_fd_pr__pfet_g5v0d10v5 ad=0p pd=0u as=0p ps=0u w=4.38e+06u l=500000u
X123 S.t1030 G.t123 D.t980 S.t6 sky130_fd_pr__pfet_g5v0d10v5 ad=0p pd=0u as=0p ps=0u w=4.38e+06u l=500000u
X124 S.t1029 G.t124 D.t979 S.t77 sky130_fd_pr__pfet_g5v0d10v5 ad=0p pd=0u as=0p ps=0u w=4.38e+06u l=500000u
X125 S.t1031 G.t125 D.t978 S.t12 sky130_fd_pr__pfet_g5v0d10v5 ad=0p pd=0u as=0p ps=0u w=4.38e+06u l=500000u
X126 D.t977 G.t126 S.t1028 S.t24 sky130_fd_pr__pfet_g5v0d10v5 ad=0p pd=0u as=0p ps=0u w=4.38e+06u l=500000u
X127 S.t1017 G.t127 D.t976 S.t290 sky130_fd_pr__pfet_g5v0d10v5 ad=0p pd=0u as=0p ps=0u w=4.38e+06u l=500000u
X128 S.t1016 G.t128 D.t975 S.t16 sky130_fd_pr__pfet_g5v0d10v5 ad=0p pd=0u as=0p ps=0u w=4.38e+06u l=500000u
X129 S.t1018 G.t129 D.t974 S.t20 sky130_fd_pr__pfet_g5v0d10v5 ad=0p pd=0u as=0p ps=0u w=4.38e+06u l=500000u
X130 S.t1027 G.t130 D.t973 S.t200 sky130_fd_pr__pfet_g5v0d10v5 ad=0p pd=0u as=0p ps=0u w=4.38e+06u l=500000u
X131 S.t1026 G.t131 D.t972 S.t34 sky130_fd_pr__pfet_g5v0d10v5 ad=0p pd=0u as=0p ps=0u w=4.38e+06u l=500000u
X132 D.t971 G.t132 S.t1025 S.t27 sky130_fd_pr__pfet_g5v0d10v5 ad=0p pd=0u as=0p ps=0u w=4.38e+06u l=500000u
X133 S.t1024 G.t133 D.t970 S.t256 sky130_fd_pr__pfet_g5v0d10v5 ad=0p pd=0u as=0p ps=0u w=4.38e+06u l=500000u
X134 D.t969 G.t134 S.t1023 S.t36 sky130_fd_pr__pfet_g5v0d10v5 ad=0p pd=0u as=0p ps=0u w=4.38e+06u l=500000u
X135 S.t1022 G.t135 D.t968 S.t213 sky130_fd_pr__pfet_g5v0d10v5 ad=0p pd=0u as=0p ps=0u w=4.38e+06u l=500000u
X136 S.t1019 G.t136 D.t967 S.t36 sky130_fd_pr__pfet_g5v0d10v5 ad=0p pd=0u as=0p ps=0u w=4.38e+06u l=500000u
X137 S.t1013 G.t137 D.t966 S.t240 sky130_fd_pr__pfet_g5v0d10v5 ad=0p pd=0u as=0p ps=0u w=4.38e+06u l=500000u
X138 D.t965 G.t138 S.t1012 S.t34 sky130_fd_pr__pfet_g5v0d10v5 ad=0p pd=0u as=0p ps=0u w=4.38e+06u l=500000u
X139 S.t1011 G.t139 D.t964 S.t18 sky130_fd_pr__pfet_g5v0d10v5 ad=0p pd=0u as=0p ps=0u w=4.38e+06u l=500000u
X140 S.t1005 G.t140 D.t963 S.t30 sky130_fd_pr__pfet_g5v0d10v5 ad=0p pd=0u as=0p ps=0u w=4.38e+06u l=500000u
X141 S.t1010 G.t141 D.t962 S.t191 sky130_fd_pr__pfet_g5v0d10v5 ad=0p pd=0u as=0p ps=0u w=4.38e+06u l=500000u
X142 D.t961 G.t142 S.t1008 S.t213 sky130_fd_pr__pfet_g5v0d10v5 ad=0p pd=0u as=0p ps=0u w=4.38e+06u l=500000u
X143 D.t960 G.t143 S.t1009 S.t191 sky130_fd_pr__pfet_g5v0d10v5 ad=0p pd=0u as=0p ps=0u w=4.38e+06u l=500000u
X144 S.t1007 G.t144 D.t959 S.t34 sky130_fd_pr__pfet_g5v0d10v5 ad=0p pd=0u as=0p ps=0u w=4.38e+06u l=500000u
X145 S.t1006 G.t145 D.t958 S.t180 sky130_fd_pr__pfet_g5v0d10v5 ad=0p pd=0u as=0p ps=0u w=4.38e+06u l=500000u
X146 S.t1004 G.t146 D.t957 S.t8 sky130_fd_pr__pfet_g5v0d10v5 ad=0p pd=0u as=0p ps=0u w=4.38e+06u l=500000u
X147 D.t956 G.t147 S.t1003 S.t240 sky130_fd_pr__pfet_g5v0d10v5 ad=0p pd=0u as=0p ps=0u w=4.38e+06u l=500000u
X148 S.t999 G.t148 D.t955 S.t12 sky130_fd_pr__pfet_g5v0d10v5 ad=0p pd=0u as=0p ps=0u w=4.38e+06u l=500000u
X149 D.t954 G.t149 S.t1001 S.t256 sky130_fd_pr__pfet_g5v0d10v5 ad=0p pd=0u as=0p ps=0u w=4.38e+06u l=500000u
X150 D.t953 G.t150 S.t1000 S.t112 sky130_fd_pr__pfet_g5v0d10v5 ad=0p pd=0u as=0p ps=0u w=4.38e+06u l=500000u
X151 S.t1002 G.t151 D.t952 S.t34 sky130_fd_pr__pfet_g5v0d10v5 ad=0p pd=0u as=0p ps=0u w=4.38e+06u l=500000u
X152 D.t951 G.t152 S.t998 S.t10 sky130_fd_pr__pfet_g5v0d10v5 ad=0p pd=0u as=0p ps=0u w=4.38e+06u l=500000u
X153 S.t997 G.t153 D.t950 S.t213 sky130_fd_pr__pfet_g5v0d10v5 ad=0p pd=0u as=0p ps=0u w=4.38e+06u l=500000u
X154 S.t996 G.t154 D.t949 S.t52 sky130_fd_pr__pfet_g5v0d10v5 ad=0p pd=0u as=0p ps=0u w=4.38e+06u l=500000u
X155 S.t982 G.t155 D.t948 S.t45 sky130_fd_pr__pfet_g5v0d10v5 ad=0p pd=0u as=0p ps=0u w=4.38e+06u l=500000u
X156 S.t995 G.t156 D.t947 S.t58 sky130_fd_pr__pfet_g5v0d10v5 ad=0p pd=0u as=0p ps=0u w=4.38e+06u l=500000u
X157 D.t946 G.t157 S.t994 S.t151 sky130_fd_pr__pfet_g5v0d10v5 ad=0p pd=0u as=0p ps=0u w=4.38e+06u l=500000u
X158 S.t993 G.t158 D.t945 S.t38 sky130_fd_pr__pfet_g5v0d10v5 ad=0p pd=0u as=0p ps=0u w=4.38e+06u l=500000u
X159 S.t992 G.t159 D.t944 S.t0 sky130_fd_pr__pfet_g5v0d10v5 ad=0p pd=0u as=0p ps=0u w=4.38e+06u l=500000u
X160 S.t991 G.t160 D.t943 S.t191 sky130_fd_pr__pfet_g5v0d10v5 ad=0p pd=0u as=0p ps=0u w=4.38e+06u l=500000u
X161 S.t990 G.t161 D.t942 S.t240 sky130_fd_pr__pfet_g5v0d10v5 ad=0p pd=0u as=0p ps=0u w=4.38e+06u l=500000u
X162 S.t989 G.t162 D.t941 S.t180 sky130_fd_pr__pfet_g5v0d10v5 ad=0p pd=0u as=0p ps=0u w=4.38e+06u l=500000u
X163 D.t940 G.t163 S.t988 S.t240 sky130_fd_pr__pfet_g5v0d10v5 ad=0p pd=0u as=0p ps=0u w=4.38e+06u l=500000u
X164 S.t987 G.t164 D.t939 S.t256 sky130_fd_pr__pfet_g5v0d10v5 ad=0p pd=0u as=0p ps=0u w=4.38e+06u l=500000u
X165 D.t938 G.t165 S.t986 S.t85 sky130_fd_pr__pfet_g5v0d10v5 ad=0p pd=0u as=0p ps=0u w=4.38e+06u l=500000u
X166 S.t985 G.t166 D.t937 S.t40 sky130_fd_pr__pfet_g5v0d10v5 ad=0p pd=0u as=0p ps=0u w=4.38e+06u l=500000u
X167 D.t936 G.t167 S.t984 S.t58 sky130_fd_pr__pfet_g5v0d10v5 ad=0p pd=0u as=0p ps=0u w=4.38e+06u l=500000u
X168 S.t945 G.t168 D.t935 S.t112 sky130_fd_pr__pfet_g5v0d10v5 ad=0p pd=0u as=0p ps=0u w=4.38e+06u l=500000u
X169 D.t934 G.t169 S.t983 S.t45 sky130_fd_pr__pfet_g5v0d10v5 ad=0p pd=0u as=0p ps=0u w=4.38e+06u l=500000u
X170 D.t933 G.t170 S.t981 S.t151 sky130_fd_pr__pfet_g5v0d10v5 ad=0p pd=0u as=0p ps=0u w=4.38e+06u l=500000u
X171 S.t980 G.t171 D.t932 S.t240 sky130_fd_pr__pfet_g5v0d10v5 ad=0p pd=0u as=0p ps=0u w=4.38e+06u l=500000u
X172 S.t946 G.t172 D.t931 S.t213 sky130_fd_pr__pfet_g5v0d10v5 ad=0p pd=0u as=0p ps=0u w=4.38e+06u l=500000u
X173 D.t930 G.t173 S.t979 S.t6 sky130_fd_pr__pfet_g5v0d10v5 ad=0p pd=0u as=0p ps=0u w=4.38e+06u l=500000u
X174 D.t929 G.t174 S.t978 S.t191 sky130_fd_pr__pfet_g5v0d10v5 ad=0p pd=0u as=0p ps=0u w=4.38e+06u l=500000u
X175 D.t928 G.t175 S.t977 S.t151 sky130_fd_pr__pfet_g5v0d10v5 ad=0p pd=0u as=0p ps=0u w=4.38e+06u l=500000u
X176 D.t927 G.t176 S.t976 S.t200 sky130_fd_pr__pfet_g5v0d10v5 ad=0p pd=0u as=0p ps=0u w=4.38e+06u l=500000u
X177 S.t975 G.t177 D.t926 S.t103 sky130_fd_pr__pfet_g5v0d10v5 ad=0p pd=0u as=0p ps=0u w=4.38e+06u l=500000u
X178 S.t964 G.t178 D.t925 S.t191 sky130_fd_pr__pfet_g5v0d10v5 ad=0p pd=0u as=0p ps=0u w=4.38e+06u l=500000u
X179 S.t966 G.t179 D.t924 S.t36 sky130_fd_pr__pfet_g5v0d10v5 ad=0p pd=0u as=0p ps=0u w=4.38e+06u l=500000u
X180 D.t923 G.t180 S.t965 S.t213 sky130_fd_pr__pfet_g5v0d10v5 ad=0p pd=0u as=0p ps=0u w=4.38e+06u l=500000u
X181 D.t922 G.t181 S.t967 S.t50 sky130_fd_pr__pfet_g5v0d10v5 ad=0p pd=0u as=0p ps=0u w=4.38e+06u l=500000u
X182 S.t974 G.t182 D.t921 S.t99 sky130_fd_pr__pfet_g5v0d10v5 ad=0p pd=0u as=0p ps=0u w=4.38e+06u l=500000u
X183 D.t920 G.t183 S.t973 S.t47 sky130_fd_pr__pfet_g5v0d10v5 ad=0p pd=0u as=0p ps=0u w=4.38e+06u l=500000u
X184 S.t972 G.t184 D.t919 S.t75 sky130_fd_pr__pfet_g5v0d10v5 ad=0p pd=0u as=0p ps=0u w=4.38e+06u l=500000u
X185 D.t918 G.t185 S.t971 S.t65 sky130_fd_pr__pfet_g5v0d10v5 ad=0p pd=0u as=0p ps=0u w=4.38e+06u l=500000u
X186 S.t970 G.t186 D.t917 S.t95 sky130_fd_pr__pfet_g5v0d10v5 ad=0p pd=0u as=0p ps=0u w=4.38e+06u l=500000u
X187 D.t916 G.t187 S.t969 S.t191 sky130_fd_pr__pfet_g5v0d10v5 ad=0p pd=0u as=0p ps=0u w=4.38e+06u l=500000u
X188 S.t968 G.t188 D.t915 S.t10 sky130_fd_pr__pfet_g5v0d10v5 ad=0p pd=0u as=0p ps=0u w=4.38e+06u l=500000u
X189 S.t963 G.t189 D.t914 S.t112 sky130_fd_pr__pfet_g5v0d10v5 ad=0p pd=0u as=0p ps=0u w=4.38e+06u l=500000u
X190 S.t962 G.t190 D.t913 S.t99 sky130_fd_pr__pfet_g5v0d10v5 ad=0p pd=0u as=0p ps=0u w=4.38e+06u l=500000u
X191 S.t961 G.t191 D.t912 S.t103 sky130_fd_pr__pfet_g5v0d10v5 ad=0p pd=0u as=0p ps=0u w=4.38e+06u l=500000u
X192 S.t960 G.t192 D.t911 S.t75 sky130_fd_pr__pfet_g5v0d10v5 ad=0p pd=0u as=0p ps=0u w=4.38e+06u l=500000u
X193 D.t910 G.t193 S.t959 S.t58 sky130_fd_pr__pfet_g5v0d10v5 ad=0p pd=0u as=0p ps=0u w=4.38e+06u l=500000u
X194 S.t947 G.t194 D.t909 S.t85 sky130_fd_pr__pfet_g5v0d10v5 ad=0p pd=0u as=0p ps=0u w=4.38e+06u l=500000u
X195 D.t908 G.t195 S.t958 S.t81 sky130_fd_pr__pfet_g5v0d10v5 ad=0p pd=0u as=0p ps=0u w=4.38e+06u l=500000u
X196 S.t956 G.t196 D.t907 S.t95 sky130_fd_pr__pfet_g5v0d10v5 ad=0p pd=0u as=0p ps=0u w=4.38e+06u l=500000u
X197 D.t906 G.t197 S.t957 S.t213 sky130_fd_pr__pfet_g5v0d10v5 ad=0p pd=0u as=0p ps=0u w=4.38e+06u l=500000u
X198 D.t905 G.t198 S.t955 S.t18 sky130_fd_pr__pfet_g5v0d10v5 ad=0p pd=0u as=0p ps=0u w=4.38e+06u l=500000u
X199 S.t954 G.t199 D.t904 S.t10 sky130_fd_pr__pfet_g5v0d10v5 ad=0p pd=0u as=0p ps=0u w=4.38e+06u l=500000u
X200 S.t953 G.t200 D.t903 S.t81 sky130_fd_pr__pfet_g5v0d10v5 ad=0p pd=0u as=0p ps=0u w=4.38e+06u l=500000u
X201 S.t952 G.t201 D.t902 S.t213 sky130_fd_pr__pfet_g5v0d10v5 ad=0p pd=0u as=0p ps=0u w=4.38e+06u l=500000u
X202 S.t951 G.t202 D.t901 S.t99 sky130_fd_pr__pfet_g5v0d10v5 ad=0p pd=0u as=0p ps=0u w=4.38e+06u l=500000u
X203 S.t950 G.t203 D.t900 S.t95 sky130_fd_pr__pfet_g5v0d10v5 ad=0p pd=0u as=0p ps=0u w=4.38e+06u l=500000u
X204 S.t949 G.t204 D.t899 S.t75 sky130_fd_pr__pfet_g5v0d10v5 ad=0p pd=0u as=0p ps=0u w=4.38e+06u l=500000u
X205 S.t948 G.t205 D.t898 S.t10 sky130_fd_pr__pfet_g5v0d10v5 ad=0p pd=0u as=0p ps=0u w=4.38e+06u l=500000u
X206 S.t944 G.t206 D.t897 S.t95 sky130_fd_pr__pfet_g5v0d10v5 ad=0p pd=0u as=0p ps=0u w=4.38e+06u l=500000u
X207 D.t896 G.t207 S.t943 S.t191 sky130_fd_pr__pfet_g5v0d10v5 ad=0p pd=0u as=0p ps=0u w=4.38e+06u l=500000u
X208 S.t942 G.t208 D.t895 S.t112 sky130_fd_pr__pfet_g5v0d10v5 ad=0p pd=0u as=0p ps=0u w=4.38e+06u l=500000u
X209 D.t894 G.t209 S.t938 S.t151 sky130_fd_pr__pfet_g5v0d10v5 ad=0p pd=0u as=0p ps=0u w=4.38e+06u l=500000u
X210 S.t937 G.t210 D.t893 S.t65 sky130_fd_pr__pfet_g5v0d10v5 ad=0p pd=0u as=0p ps=0u w=4.38e+06u l=500000u
X211 D.t892 G.t211 S.t941 S.t85 sky130_fd_pr__pfet_g5v0d10v5 ad=0p pd=0u as=0p ps=0u w=4.38e+06u l=500000u
X212 S.t940 G.t212 D.t891 S.t103 sky130_fd_pr__pfet_g5v0d10v5 ad=0p pd=0u as=0p ps=0u w=4.38e+06u l=500000u
X213 D.t890 G.t213 S.t939 S.t81 sky130_fd_pr__pfet_g5v0d10v5 ad=0p pd=0u as=0p ps=0u w=4.38e+06u l=500000u
X214 S.t936 G.t214 D.t889 S.t85 sky130_fd_pr__pfet_g5v0d10v5 ad=0p pd=0u as=0p ps=0u w=4.38e+06u l=500000u
X215 D.t888 G.t215 S.t935 S.t213 sky130_fd_pr__pfet_g5v0d10v5 ad=0p pd=0u as=0p ps=0u w=4.38e+06u l=500000u
X216 S.t934 G.t216 D.t887 S.t20 sky130_fd_pr__pfet_g5v0d10v5 ad=0p pd=0u as=0p ps=0u w=4.38e+06u l=500000u
X217 S.t933 G.t217 D.t886 S.t62 sky130_fd_pr__pfet_g5v0d10v5 ad=0p pd=0u as=0p ps=0u w=4.38e+06u l=500000u
X218 S.t878 G.t218 D.t885 S.t81 sky130_fd_pr__pfet_g5v0d10v5 ad=0p pd=0u as=0p ps=0u w=4.38e+06u l=500000u
X219 S.t932 G.t219 D.t884 S.t99 sky130_fd_pr__pfet_g5v0d10v5 ad=0p pd=0u as=0p ps=0u w=4.38e+06u l=500000u
X220 S.t914 G.t220 D.t883 S.t151 sky130_fd_pr__pfet_g5v0d10v5 ad=0p pd=0u as=0p ps=0u w=4.38e+06u l=500000u
X221 D.t882 G.t221 S.t931 S.t112 sky130_fd_pr__pfet_g5v0d10v5 ad=0p pd=0u as=0p ps=0u w=4.38e+06u l=500000u
X222 S.t930 G.t222 D.t881 S.t95 sky130_fd_pr__pfet_g5v0d10v5 ad=0p pd=0u as=0p ps=0u w=4.38e+06u l=500000u
X223 S.t929 G.t223 D.t880 S.t75 sky130_fd_pr__pfet_g5v0d10v5 ad=0p pd=0u as=0p ps=0u w=4.38e+06u l=500000u
X224 D.t879 G.t224 S.t915 S.t103 sky130_fd_pr__pfet_g5v0d10v5 ad=0p pd=0u as=0p ps=0u w=4.38e+06u l=500000u
X225 S.t928 G.t225 D.t878 S.t10 sky130_fd_pr__pfet_g5v0d10v5 ad=0p pd=0u as=0p ps=0u w=4.38e+06u l=500000u
X226 S.t927 G.t226 D.t877 S.t112 sky130_fd_pr__pfet_g5v0d10v5 ad=0p pd=0u as=0p ps=0u w=4.38e+06u l=500000u
X227 S.t926 G.t227 D.t876 S.t58 sky130_fd_pr__pfet_g5v0d10v5 ad=0p pd=0u as=0p ps=0u w=4.38e+06u l=500000u
X228 D.t875 G.t228 S.t925 S.t8 sky130_fd_pr__pfet_g5v0d10v5 ad=0p pd=0u as=0p ps=0u w=4.38e+06u l=500000u
X229 S.t924 G.t229 D.t874 S.t103 sky130_fd_pr__pfet_g5v0d10v5 ad=0p pd=0u as=0p ps=0u w=4.38e+06u l=500000u
X230 D.t873 G.t230 S.t923 S.t42 sky130_fd_pr__pfet_g5v0d10v5 ad=0p pd=0u as=0p ps=0u w=4.38e+06u l=500000u
X231 D.t872 G.t231 S.t922 S.t213 sky130_fd_pr__pfet_g5v0d10v5 ad=0p pd=0u as=0p ps=0u w=4.38e+06u l=500000u
X232 D.t871 G.t232 S.t921 S.t99 sky130_fd_pr__pfet_g5v0d10v5 ad=0p pd=0u as=0p ps=0u w=4.38e+06u l=500000u
X233 D.t870 G.t233 S.t920 S.t38 sky130_fd_pr__pfet_g5v0d10v5 ad=0p pd=0u as=0p ps=0u w=4.38e+06u l=500000u
X234 D.t869 G.t234 S.t919 S.t62 sky130_fd_pr__pfet_g5v0d10v5 ad=0p pd=0u as=0p ps=0u w=4.38e+06u l=500000u
X235 D.t868 G.t235 S.t877 S.t58 sky130_fd_pr__pfet_g5v0d10v5 ad=0p pd=0u as=0p ps=0u w=4.38e+06u l=500000u
X236 D.t867 G.t236 S.t876 S.t75 sky130_fd_pr__pfet_g5v0d10v5 ad=0p pd=0u as=0p ps=0u w=4.38e+06u l=500000u
X237 D.t866 G.t237 S.t918 S.t95 sky130_fd_pr__pfet_g5v0d10v5 ad=0p pd=0u as=0p ps=0u w=4.38e+06u l=500000u
X238 S.t917 G.t238 D.t865 S.t40 sky130_fd_pr__pfet_g5v0d10v5 ad=0p pd=0u as=0p ps=0u w=4.38e+06u l=500000u
X239 S.t916 G.t239 D.t864 S.t14 sky130_fd_pr__pfet_g5v0d10v5 ad=0p pd=0u as=0p ps=0u w=4.38e+06u l=500000u
X240 S.t913 G.t240 D.t863 S.t14 sky130_fd_pr__pfet_g5v0d10v5 ad=0p pd=0u as=0p ps=0u w=4.38e+06u l=500000u
X241 D.t862 G.t241 S.t881 S.t62 sky130_fd_pr__pfet_g5v0d10v5 ad=0p pd=0u as=0p ps=0u w=4.38e+06u l=500000u
X242 D.t861 G.t242 S.t912 S.t10 sky130_fd_pr__pfet_g5v0d10v5 ad=0p pd=0u as=0p ps=0u w=4.38e+06u l=500000u
X243 D.t860 G.t243 S.t911 S.t8 sky130_fd_pr__pfet_g5v0d10v5 ad=0p pd=0u as=0p ps=0u w=4.38e+06u l=500000u
X244 S.t910 G.t244 D.t859 S.t151 sky130_fd_pr__pfet_g5v0d10v5 ad=0p pd=0u as=0p ps=0u w=4.38e+06u l=500000u
X245 S.t909 G.t245 D.t858 S.t62 sky130_fd_pr__pfet_g5v0d10v5 ad=0p pd=0u as=0p ps=0u w=4.38e+06u l=500000u
X246 D.t857 G.t246 S.t908 S.t47 sky130_fd_pr__pfet_g5v0d10v5 ad=0p pd=0u as=0p ps=0u w=4.38e+06u l=500000u
X247 D.t856 G.t247 S.t907 S.t42 sky130_fd_pr__pfet_g5v0d10v5 ad=0p pd=0u as=0p ps=0u w=4.38e+06u l=500000u
X248 D.t855 G.t248 S.t897 S.t50 sky130_fd_pr__pfet_g5v0d10v5 ad=0p pd=0u as=0p ps=0u w=4.38e+06u l=500000u
X249 D.t854 G.t249 S.t906 S.t2 sky130_fd_pr__pfet_g5v0d10v5 ad=0p pd=0u as=0p ps=0u w=4.38e+06u l=500000u
X250 D.t853 G.t250 S.t898 S.t38 sky130_fd_pr__pfet_g5v0d10v5 ad=0p pd=0u as=0p ps=0u w=4.38e+06u l=500000u
X251 D.t852 G.t251 S.t905 S.t22 sky130_fd_pr__pfet_g5v0d10v5 ad=0p pd=0u as=0p ps=0u w=4.38e+06u l=500000u
X252 S.t904 G.t252 D.t851 S.t58 sky130_fd_pr__pfet_g5v0d10v5 ad=0p pd=0u as=0p ps=0u w=4.38e+06u l=500000u
X253 D.t850 G.t253 S.t903 S.t85 sky130_fd_pr__pfet_g5v0d10v5 ad=0p pd=0u as=0p ps=0u w=4.38e+06u l=500000u
X254 D.t849 G.t254 S.t902 S.t16 sky130_fd_pr__pfet_g5v0d10v5 ad=0p pd=0u as=0p ps=0u w=4.38e+06u l=500000u
X255 D.t848 G.t255 S.t901 S.t30 sky130_fd_pr__pfet_g5v0d10v5 ad=0p pd=0u as=0p ps=0u w=4.38e+06u l=500000u
X256 S.t900 G.t256 D.t847 S.t151 sky130_fd_pr__pfet_g5v0d10v5 ad=0p pd=0u as=0p ps=0u w=4.38e+06u l=500000u
X257 D.t846 G.t257 S.t899 S.t40 sky130_fd_pr__pfet_g5v0d10v5 ad=0p pd=0u as=0p ps=0u w=4.38e+06u l=500000u
X258 D.t845 G.t258 S.t896 S.t8 sky130_fd_pr__pfet_g5v0d10v5 ad=0p pd=0u as=0p ps=0u w=4.38e+06u l=500000u
X259 D.t844 G.t259 S.t895 S.t85 sky130_fd_pr__pfet_g5v0d10v5 ad=0p pd=0u as=0p ps=0u w=4.38e+06u l=500000u
X260 D.t843 G.t260 S.t893 S.t12 sky130_fd_pr__pfet_g5v0d10v5 ad=0p pd=0u as=0p ps=0u w=4.38e+06u l=500000u
X261 D.t842 G.t261 S.t894 S.t42 sky130_fd_pr__pfet_g5v0d10v5 ad=0p pd=0u as=0p ps=0u w=4.38e+06u l=500000u
X262 D.t841 G.t262 S.t892 S.t81 sky130_fd_pr__pfet_g5v0d10v5 ad=0p pd=0u as=0p ps=0u w=4.38e+06u l=500000u
X263 S.t890 G.t263 D.t840 S.t60 sky130_fd_pr__pfet_g5v0d10v5 ad=0p pd=0u as=0p ps=0u w=4.38e+06u l=500000u
X264 D.t839 G.t264 S.t889 S.t38 sky130_fd_pr__pfet_g5v0d10v5 ad=0p pd=0u as=0p ps=0u w=4.38e+06u l=500000u
X265 D.t838 G.t265 S.t891 S.t62 sky130_fd_pr__pfet_g5v0d10v5 ad=0p pd=0u as=0p ps=0u w=4.38e+06u l=500000u
X266 S.t888 G.t266 D.t837 S.t2 sky130_fd_pr__pfet_g5v0d10v5 ad=0p pd=0u as=0p ps=0u w=4.38e+06u l=500000u
X267 S.t880 G.t267 D.t836 S.t40 sky130_fd_pr__pfet_g5v0d10v5 ad=0p pd=0u as=0p ps=0u w=4.38e+06u l=500000u
X268 S.t887 G.t268 D.t835 S.t75 sky130_fd_pr__pfet_g5v0d10v5 ad=0p pd=0u as=0p ps=0u w=4.38e+06u l=500000u
X269 D.t834 G.t269 S.t886 S.t47 sky130_fd_pr__pfet_g5v0d10v5 ad=0p pd=0u as=0p ps=0u w=4.38e+06u l=500000u
X270 S.t885 G.t270 D.t833 S.t22 sky130_fd_pr__pfet_g5v0d10v5 ad=0p pd=0u as=0p ps=0u w=4.38e+06u l=500000u
X271 S.t884 G.t271 D.t832 S.t151 sky130_fd_pr__pfet_g5v0d10v5 ad=0p pd=0u as=0p ps=0u w=4.38e+06u l=500000u
X272 D.t831 G.t272 S.t883 S.t112 sky130_fd_pr__pfet_g5v0d10v5 ad=0p pd=0u as=0p ps=0u w=4.38e+06u l=500000u
X273 S.t882 G.t273 D.t830 S.t290 sky130_fd_pr__pfet_g5v0d10v5 ad=0p pd=0u as=0p ps=0u w=4.38e+06u l=500000u
X274 D.t829 G.t274 S.t879 S.t50 sky130_fd_pr__pfet_g5v0d10v5 ad=0p pd=0u as=0p ps=0u w=4.38e+06u l=500000u
X275 S.t875 G.t275 D.t828 S.t16 sky130_fd_pr__pfet_g5v0d10v5 ad=0p pd=0u as=0p ps=0u w=4.38e+06u l=500000u
X276 D.t827 G.t276 S.t874 S.t2 sky130_fd_pr__pfet_g5v0d10v5 ad=0p pd=0u as=0p ps=0u w=4.38e+06u l=500000u
X277 D.t826 G.t277 S.t873 S.t103 sky130_fd_pr__pfet_g5v0d10v5 ad=0p pd=0u as=0p ps=0u w=4.38e+06u l=500000u