* NGSPICE file created from mag_files/POSTLAYOUT/pmos_flat_48x48.ext - technology: sky130A

.subckt pmos_flat_48x48 G S D PW
X0 S G D S sky130_fd_pr__pfet_g5v0d10v5 ad=1.56918e+16p pd=3.81907e+10u as=6.27058e+15p ps=4.24955e+10u w=4.38e+06u l=500000u
X1 S G D S sky130_fd_pr__pfet_g5v0d10v5 ad=0p pd=0u as=0p ps=0u w=4.38e+06u l=500000u
X2 S G D S sky130_fd_pr__pfet_g5v0d10v5 ad=0p pd=0u as=0p ps=0u w=4.38e+06u l=500000u
X3 S G D S sky130_fd_pr__pfet_g5v0d10v5 ad=0p pd=0u as=0p ps=0u w=4.38e+06u l=500000u
X4 S G D S sky130_fd_pr__pfet_g5v0d10v5 ad=0p pd=0u as=0p ps=0u w=4.38e+06u l=500000u
X5 D G S S sky130_fd_pr__pfet_g5v0d10v5 ad=0p pd=0u as=0p ps=0u w=4.38e+06u l=500000u
X6 S G D S sky130_fd_pr__pfet_g5v0d10v5 ad=0p pd=0u as=0p ps=0u w=4.38e+06u l=500000u
X7 S G D S sky130_fd_pr__pfet_g5v0d10v5 ad=0p pd=0u as=0p ps=0u w=4.38e+06u l=500000u
X8 S G D S sky130_fd_pr__pfet_g5v0d10v5 ad=0p pd=0u as=0p ps=0u w=4.38e+06u l=500000u
X9 S G D S sky130_fd_pr__pfet_g5v0d10v5 ad=0p pd=0u as=0p ps=0u w=4.38e+06u l=500000u
X10 S G D S sky130_fd_pr__pfet_g5v0d10v5 ad=0p pd=0u as=0p ps=0u w=4.38e+06u l=500000u
X11 S G D S sky130_fd_pr__pfet_g5v0d10v5 ad=0p pd=0u as=0p ps=0u w=4.38e+06u l=500000u
X12 D G S S sky130_fd_pr__pfet_g5v0d10v5 ad=0p pd=0u as=0p ps=0u w=4.38e+06u l=500000u
X13 D G S S sky130_fd_pr__pfet_g5v0d10v5 ad=0p pd=0u as=0p ps=0u w=4.38e+06u l=500000u
X14 D G S S sky130_fd_pr__pfet_g5v0d10v5 ad=0p pd=0u as=0p ps=0u w=4.38e+06u l=500000u
X15 S G D S sky130_fd_pr__pfet_g5v0d10v5 ad=0p pd=0u as=0p ps=0u w=4.38e+06u l=500000u
X16 S G D S sky130_fd_pr__pfet_g5v0d10v5 ad=0p pd=0u as=0p ps=0u w=4.38e+06u l=500000u
X17 S G D S sky130_fd_pr__pfet_g5v0d10v5 ad=0p pd=0u as=0p ps=0u w=4.38e+06u l=500000u
X18 D G S S sky130_fd_pr__pfet_g5v0d10v5 ad=0p pd=0u as=0p ps=0u w=4.38e+06u l=500000u
X19 S G D S sky130_fd_pr__pfet_g5v0d10v5 ad=0p pd=0u as=0p ps=0u w=4.38e+06u l=500000u
X20 S G D S sky130_fd_pr__pfet_g5v0d10v5 ad=0p pd=0u as=0p ps=0u w=4.38e+06u l=500000u
X21 D G S S sky130_fd_pr__pfet_g5v0d10v5 ad=0p pd=0u as=0p ps=0u w=4.38e+06u l=500000u
X22 S G D S sky130_fd_pr__pfet_g5v0d10v5 ad=0p pd=0u as=0p ps=0u w=4.38e+06u l=500000u
X23 D G S S sky130_fd_pr__pfet_g5v0d10v5 ad=0p pd=0u as=0p ps=0u w=4.38e+06u l=500000u
X24 D G S S sky130_fd_pr__pfet_g5v0d10v5 ad=0p pd=0u as=0p ps=0u w=4.38e+06u l=500000u
X25 S G D S sky130_fd_pr__pfet_g5v0d10v5 ad=0p pd=0u as=0p ps=0u w=4.38e+06u l=500000u
X26 D G S S sky130_fd_pr__pfet_g5v0d10v5 ad=0p pd=0u as=0p ps=0u w=4.38e+06u l=500000u
X27 D G S S sky130_fd_pr__pfet_g5v0d10v5 ad=0p pd=0u as=0p ps=0u w=4.38e+06u l=500000u
X28 D G S S sky130_fd_pr__pfet_g5v0d10v5 ad=0p pd=0u as=0p ps=0u w=4.38e+06u l=500000u
X29 S G D S sky130_fd_pr__pfet_g5v0d10v5 ad=0p pd=0u as=0p ps=0u w=4.38e+06u l=500000u
X30 S G D S sky130_fd_pr__pfet_g5v0d10v5 ad=0p pd=0u as=0p ps=0u w=4.38e+06u l=500000u
X31 D G S S sky130_fd_pr__pfet_g5v0d10v5 ad=0p pd=0u as=0p ps=0u w=4.38e+06u l=500000u
X32 D G S S sky130_fd_pr__pfet_g5v0d10v5 ad=0p pd=0u as=0p ps=0u w=4.38e+06u l=500000u
X33 S G D S sky130_fd_pr__pfet_g5v0d10v5 ad=0p pd=0u as=0p ps=0u w=4.38e+06u l=500000u
X34 S G D S sky130_fd_pr__pfet_g5v0d10v5 ad=0p pd=0u as=0p ps=0u w=4.38e+06u l=500000u
X35 S G D S sky130_fd_pr__pfet_g5v0d10v5 ad=0p pd=0u as=0p ps=0u w=4.38e+06u l=500000u
X36 S G D S sky130_fd_pr__pfet_g5v0d10v5 ad=0p pd=0u as=0p ps=0u w=4.38e+06u l=500000u
X37 S G D S sky130_fd_pr__pfet_g5v0d10v5 ad=0p pd=0u as=0p ps=0u w=4.38e+06u l=500000u
X38 D G S S sky130_fd_pr__pfet_g5v0d10v5 ad=0p pd=0u as=0p ps=0u w=4.38e+06u l=500000u
X39 S G D S sky130_fd_pr__pfet_g5v0d10v5 ad=0p pd=0u as=0p ps=0u w=4.38e+06u l=500000u
X40 D G S S sky130_fd_pr__pfet_g5v0d10v5 ad=0p pd=0u as=0p ps=0u w=4.38e+06u l=500000u
X41 S G D S sky130_fd_pr__pfet_g5v0d10v5 ad=0p pd=0u as=0p ps=0u w=4.38e+06u l=500000u
X42 D G S S sky130_fd_pr__pfet_g5v0d10v5 ad=0p pd=0u as=0p ps=0u w=4.38e+06u l=500000u
X43 D G S S sky130_fd_pr__pfet_g5v0d10v5 ad=0p pd=0u as=0p ps=0u w=4.38e+06u l=500000u
X44 D G S S sky130_fd_pr__pfet_g5v0d10v5 ad=0p pd=0u as=0p ps=0u w=4.38e+06u l=500000u
X45 D G S S sky130_fd_pr__pfet_g5v0d10v5 ad=0p pd=0u as=0p ps=0u w=4.38e+06u l=500000u
X46 D G S S sky130_fd_pr__pfet_g5v0d10v5 ad=0p pd=0u as=0p ps=0u w=4.38e+06u l=500000u
X47 S G D S sky130_fd_pr__pfet_g5v0d10v5 ad=0p pd=0u as=0p ps=0u w=4.38e+06u l=500000u
X48 D G S S sky130_fd_pr__pfet_g5v0d10v5 ad=0p pd=0u as=0p ps=0u w=4.38e+06u l=500000u
X49 D G S S sky130_fd_pr__pfet_g5v0d10v5 ad=0p pd=0u as=0p ps=0u w=4.38e+06u l=500000u
X50 S G D S sky130_fd_pr__pfet_g5v0d10v5 ad=0p pd=0u as=0p ps=0u w=4.38e+06u l=500000u
X51 D G S S sky130_fd_pr__pfet_g5v0d10v5 ad=0p pd=0u as=0p ps=0u w=4.38e+06u l=500000u
X52 D G S S sky130_fd_pr__pfet_g5v0d10v5 ad=0p pd=0u as=0p ps=0u w=4.38e+06u l=500000u
X53 D G S S sky130_fd_pr__pfet_g5v0d10v5 ad=0p pd=0u as=0p ps=0u w=4.38e+06u l=500000u
X54 S G D S sky130_fd_pr__pfet_g5v0d10v5 ad=0p pd=0u as=0p ps=0u w=4.38e+06u l=500000u
X55 S G D S sky130_fd_pr__pfet_g5v0d10v5 ad=0p pd=0u as=0p ps=0u w=4.38e+06u l=500000u
X56 D G S S sky130_fd_pr__pfet_g5v0d10v5 ad=0p pd=0u as=0p ps=0u w=4.38e+06u l=500000u
X57 D G S S sky130_fd_pr__pfet_g5v0d10v5 ad=0p pd=0u as=0p ps=0u w=4.38e+06u l=500000u
X58 D G S S sky130_fd_pr__pfet_g5v0d10v5 ad=0p pd=0u as=0p ps=0u w=4.38e+06u l=500000u
X59 D G S S sky130_fd_pr__pfet_g5v0d10v5 ad=0p pd=0u as=0p ps=0u w=4.38e+06u l=500000u
X60 S G D S sky130_fd_pr__pfet_g5v0d10v5 ad=0p pd=0u as=0p ps=0u w=4.38e+06u l=500000u
X61 D G S S sky130_fd_pr__pfet_g5v0d10v5 ad=0p pd=0u as=0p ps=0u w=4.38e+06u l=500000u
X62 S G D S sky130_fd_pr__pfet_g5v0d10v5 ad=0p pd=0u as=0p ps=0u w=4.38e+06u l=500000u
X63 D G S S sky130_fd_pr__pfet_g5v0d10v5 ad=0p pd=0u as=0p ps=0u w=4.38e+06u l=500000u
X64 S G D S sky130_fd_pr__pfet_g5v0d10v5 ad=0p pd=0u as=0p ps=0u w=4.38e+06u l=500000u
X65 D G S S sky130_fd_pr__pfet_g5v0d10v5 ad=0p pd=0u as=0p ps=0u w=4.38e+06u l=500000u
X66 D G S S sky130_fd_pr__pfet_g5v0d10v5 ad=0p pd=0u as=0p ps=0u w=4.38e+06u l=500000u
X67 S G D S sky130_fd_pr__pfet_g5v0d10v5 ad=0p pd=0u as=0p ps=0u w=4.38e+06u l=500000u
X68 S G D S sky130_fd_pr__pfet_g5v0d10v5 ad=0p pd=0u as=0p ps=0u w=4.38e+06u l=500000u
X69 S G D S sky130_fd_pr__pfet_g5v0d10v5 ad=0p pd=0u as=0p ps=0u w=4.38e+06u l=500000u
X70 S G D S sky130_fd_pr__pfet_g5v0d10v5 ad=0p pd=0u as=0p ps=0u w=4.38e+06u l=500000u
X71 D G S S sky130_fd_pr__pfet_g5v0d10v5 ad=0p pd=0u as=0p ps=0u w=4.38e+06u l=500000u
X72 S G D S sky130_fd_pr__pfet_g5v0d10v5 ad=0p pd=0u as=0p ps=0u w=4.38e+06u l=500000u
X73 D G S S sky130_fd_pr__pfet_g5v0d10v5 ad=0p pd=0u as=0p ps=0u w=4.38e+06u l=500000u
X74 D G S S sky130_fd_pr__pfet_g5v0d10v5 ad=0p pd=0u as=0p ps=0u w=4.38e+06u l=500000u
X75 S G D S sky130_fd_pr__pfet_g5v0d10v5 ad=0p pd=0u as=0p ps=0u w=4.38e+06u l=500000u
X76 D G S S sky130_fd_pr__pfet_g5v0d10v5 ad=0p pd=0u as=0p ps=0u w=4.38e+06u l=500000u
X77 D G S S sky130_fd_pr__pfet_g5v0d10v5 ad=0p pd=0u as=0p ps=0u w=4.38e+06u l=500000u
X78 S G D S sky130_fd_pr__pfet_g5v0d10v5 ad=0p pd=0u as=0p ps=0u w=4.38e+06u l=500000u
X79 S G D S sky130_fd_pr__pfet_g5v0d10v5 ad=0p pd=0u as=0p ps=0u w=4.38e+06u l=500000u
X80 S G D S sky130_fd_pr__pfet_g5v0d10v5 ad=0p pd=0u as=0p ps=0u w=4.38e+06u l=500000u
X81 S G D S sky130_fd_pr__pfet_g5v0d10v5 ad=0p pd=0u as=0p ps=0u w=4.38e+06u l=500000u
X82 S G D S sky130_fd_pr__pfet_g5v0d10v5 ad=0p pd=0u as=0p ps=0u w=4.38e+06u l=500000u
X83 D G S S sky130_fd_pr__pfet_g5v0d10v5 ad=0p pd=0u as=0p ps=0u w=4.38e+06u l=500000u
X84 S G D S sky130_fd_pr__pfet_g5v0d10v5 ad=0p pd=0u as=0p ps=0u w=4.38e+06u l=500000u
X85 S G D S sky130_fd_pr__pfet_g5v0d10v5 ad=0p pd=0u as=0p ps=0u w=4.38e+06u l=500000u
X86 D G S S sky130_fd_pr__pfet_g5v0d10v5 ad=0p pd=0u as=0p ps=0u w=4.38e+06u l=500000u
X87 S G D S sky130_fd_pr__pfet_g5v0d10v5 ad=0p pd=0u as=0p ps=0u w=4.38e+06u l=500000u
X88 S G D S sky130_fd_pr__pfet_g5v0d10v5 ad=0p pd=0u as=0p ps=0u w=4.38e+06u l=500000u
X89 S G D S sky130_fd_pr__pfet_g5v0d10v5 ad=0p pd=0u as=0p ps=0u w=4.38e+06u l=500000u
X90 D G S S sky130_fd_pr__pfet_g5v0d10v5 ad=0p pd=0u as=0p ps=0u w=4.38e+06u l=500000u
X91 S G D S sky130_fd_pr__pfet_g5v0d10v5 ad=0p pd=0u as=0p ps=0u w=4.38e+06u l=500000u
X92 S G D S sky130_fd_pr__pfet_g5v0d10v5 ad=0p pd=0u as=0p ps=0u w=4.38e+06u l=500000u
X93 S G D S sky130_fd_pr__pfet_g5v0d10v5 ad=0p pd=0u as=0p ps=0u w=4.38e+06u l=500000u
X94 D G S S sky130_fd_pr__pfet_g5v0d10v5 ad=0p pd=0u as=0p ps=0u w=4.38e+06u l=500000u
X95 S G D S sky130_fd_pr__pfet_g5v0d10v5 ad=0p pd=0u as=0p ps=0u w=4.38e+06u l=500000u
X96 D G S S sky130_fd_pr__pfet_g5v0d10v5 ad=0p pd=0u as=0p ps=0u w=4.38e+06u l=500000u
X97 D G S S sky130_fd_pr__pfet_g5v0d10v5 ad=0p pd=0u as=0p ps=0u w=4.38e+06u l=500000u
X98 D G S S sky130_fd_pr__pfet_g5v0d10v5 ad=0p pd=0u as=0p ps=0u w=4.38e+06u l=500000u
X99 S G D S sky130_fd_pr__pfet_g5v0d10v5 ad=0p pd=0u as=0p ps=0u w=4.38e+06u l=500000u
X100 D G S S sky130_fd_pr__pfet_g5v0d10v5 ad=0p pd=0u as=0p ps=0u w=4.38e+06u l=500000u
X101 S G D S sky130_fd_pr__pfet_g5v0d10v5 ad=0p pd=0u as=0p ps=0u w=4.38e+06u l=500000u
X102 D G S S sky130_fd_pr__pfet_g5v0d10v5 ad=0p pd=0u as=0p ps=0u w=4.38e+06u l=500000u
X103 D G S S sky130_fd_pr__pfet_g5v0d10v5 ad=0p pd=0u as=0p ps=0u w=4.38e+06u l=500000u
X104 S G D S sky130_fd_pr__pfet_g5v0d10v5 ad=0p pd=0u as=0p ps=0u w=4.38e+06u l=500000u
X105 D G S S sky130_fd_pr__pfet_g5v0d10v5 ad=0p pd=0u as=0p ps=0u w=4.38e+06u l=500000u
X106 S G D S sky130_fd_pr__pfet_g5v0d10v5 ad=0p pd=0u as=0p ps=0u w=4.38e+06u l=500000u
X107 S G D S sky130_fd_pr__pfet_g5v0d10v5 ad=0p pd=0u as=0p ps=0u w=4.38e+06u l=500000u
X108 D G S S sky130_fd_pr__pfet_g5v0d10v5 ad=0p pd=0u as=0p ps=0u w=4.38e+06u l=500000u
X109 D G S S sky130_fd_pr__pfet_g5v0d10v5 ad=0p pd=0u as=0p ps=0u w=4.38e+06u l=500000u
X110 D G S S sky130_fd_pr__pfet_g5v0d10v5 ad=0p pd=0u as=0p ps=0u w=4.38e+06u l=500000u
X111 S G D S sky130_fd_pr__pfet_g5v0d10v5 ad=0p pd=0u as=0p ps=0u w=4.38e+06u l=500000u
X112 S G D S sky130_fd_pr__pfet_g5v0d10v5 ad=0p pd=0u as=0p ps=0u w=4.38e+06u l=500000u
X113 D G S S sky130_fd_pr__pfet_g5v0d10v5 ad=0p pd=0u as=0p ps=0u w=4.38e+06u l=500000u
X114 S G D S sky130_fd_pr__pfet_g5v0d10v5 ad=0p pd=0u as=0p ps=0u w=4.38e+06u l=500000u
X115 S G D S sky130_fd_pr__pfet_g5v0d10v5 ad=0p pd=0u as=0p ps=0u w=4.38e+06u l=500000u
X116 D G S S sky130_fd_pr__pfet_g5v0d10v5 ad=0p pd=0u as=0p ps=0u w=4.38e+06u l=500000u
X117 D G S S sky130_fd_pr__pfet_g5v0d10v5 ad=0p pd=0u as=0p ps=0u w=4.38e+06u l=500000u
X118 S G D S sky130_fd_pr__pfet_g5v0d10v5 ad=0p pd=0u as=0p ps=0u w=4.38e+06u l=500000u
X119 S G D S sky130_fd_pr__pfet_g5v0d10v5 ad=0p pd=0u as=0p ps=0u w=4.38e+06u l=500000u
X120 S G D S sky130_fd_pr__pfet_g5v0d10v5 ad=0p pd=0u as=0p ps=0u w=4.38e+06u l=500000u
X121 S G D S sky130_fd_pr__pfet_g5v0d10v5 ad=0p pd=0u as=0p ps=0u w=4.38e+06u l=500000u
X122 S G D S sky130_fd_pr__pfet_g5v0d10v5 ad=0p pd=0u as=0p ps=0u w=4.38e+06u l=500000u
X123 S G D S sky130_fd_pr__pfet_g5v0d10v5 ad=0p pd=0u as=0p ps=0u w=4.38e+06u l=500000u
X124 D G S S sky130_fd_pr__pfet_g5v0d10v5 ad=0p pd=0u as=0p ps=0u w=4.38e+06u l=500000u
X125 S G D S sky130_fd_pr__pfet_g5v0d10v5 ad=0p pd=0u as=0p ps=0u w=4.38e+06u l=500000u
X126 S G D S sky130_fd_pr__pfet_g5v0d10v5 ad=0p pd=0u as=0p ps=0u w=4.38e+06u l=500000u
X127 D G S S sky130_fd_pr__pfet_g5v0d10v5 ad=0p pd=0u as=0p ps=0u w=4.38e+06u l=500000u
X128 D G S S sky130_fd_pr__pfet_g5v0d10v5 ad=0p pd=0u as=0p ps=0u w=4.38e+06u l=500000u
X129 S G D S sky130_fd_pr__pfet_g5v0d10v5 ad=0p pd=0u as=0p ps=0u w=4.38e+06u l=500000u
X130 S G D S sky130_fd_pr__pfet_g5v0d10v5 ad=0p pd=0u as=0p ps=0u w=4.38e+06u l=500000u
X131 D G S S sky130_fd_pr__pfet_g5v0d10v5 ad=0p pd=0u as=0p ps=0u w=4.38e+06u l=500000u
X132 D G S S sky130_fd_pr__pfet_g5v0d10v5 ad=0p pd=0u as=0p ps=0u w=4.38e+06u l=500000u
X133 S G D S sky130_fd_pr__pfet_g5v0d10v5 ad=0p pd=0u as=0p ps=0u w=4.38e+06u l=500000u
X134 D G S S sky130_fd_pr__pfet_g5v0d10v5 ad=0p pd=0u as=0p ps=0u w=4.38e+06u l=500000u
X135 S G D S sky130_fd_pr__pfet_g5v0d10v5 ad=0p pd=0u as=0p ps=0u w=4.38e+06u l=500000u
X136 D G S S sky130_fd_pr__pfet_g5v0d10v5 ad=0p pd=0u as=0p ps=0u w=4.38e+06u l=500000u
X137 D G S S sky130_fd_pr__pfet_g5v0d10v5 ad=0p pd=0u as=0p ps=0u w=4.38e+06u l=500000u
X138 S G D S sky130_fd_pr__pfet_g5v0d10v5 ad=0p pd=0u as=0p ps=0u w=4.38e+06u l=500000u
X139 D G S S sky130_fd_pr__pfet_g5v0d10v5 ad=0p pd=0u as=0p ps=0u w=4.38e+06u l=500000u
X140 D G S S sky130_fd_pr__pfet_g5v0d10v5 ad=0p pd=0u as=0p ps=0u w=4.38e+06u l=500000u
X141 D G S S sky130_fd_pr__pfet_g5v0d10v5 ad=0p pd=0u as=0p ps=0u w=4.38e+06u l=500000u
X142 S G D S sky130_fd_pr__pfet_g5v0d10v5 ad=0p pd=0u as=0p ps=0u w=4.38e+06u l=500000u
X143 S G D S sky130_fd_pr__pfet_g5v0d10v5 ad=0p pd=0u as=0p ps=0u w=4.38e+06u l=500000u
X144 D G S S sky130_fd_pr__pfet_g5v0d10v5 ad=0p pd=0u as=0p ps=0u w=4.38e+06u l=500000u
X145 S G D S sky130_fd_pr__pfet_g5v0d10v5 ad=0p pd=0u as=0p ps=0u w=4.38e+06u l=500000u
X146 D G S S sky130_fd_pr__pfet_g5v0d10v5 ad=0p pd=0u as=0p ps=0u w=4.38e+06u l=500000u
X147 D G S S sky130_fd_pr__pfet_g5v0d10v5 ad=0p pd=0u as=0p ps=0u w=4.38e+06u l=500000u
X148 D G S S sky130_fd_pr__pfet_g5v0d10v5 ad=0p pd=0u as=0p ps=0u w=4.38e+06u l=500000u
X149 D G S S sky130_fd_pr__pfet_g5v0d10v5 ad=0p pd=0u as=0p ps=0u w=4.38e+06u l=500000u
X150 S G D S sky130_fd_pr__pfet_g5v0d10v5 ad=0p pd=0u as=0p ps=0u w=4.38e+06u l=500000u
X151 D G S S sky130_fd_pr__pfet_g5v0d10v5 ad=0p pd=0u as=0p ps=0u w=4.38e+06u l=500000u
X152 D G S S sky130_fd_pr__pfet_g5v0d10v5 ad=0p pd=0u as=0p ps=0u w=4.38e+06u l=500000u
X153 S G D S sky130_fd_pr__pfet_g5v0d10v5 ad=0p pd=0u as=0p ps=0u w=4.38e+06u l=500000u
X154 S G D S sky130_fd_pr__pfet_g5v0d10v5 ad=0p pd=0u as=0p ps=0u w=4.38e+06u l=500000u
X155 D G S S sky130_fd_pr__pfet_g5v0d10v5 ad=0p pd=0u as=0p ps=0u w=4.38e+06u l=500000u
X156 D G S S sky130_fd_pr__pfet_g5v0d10v5 ad=0p pd=0u as=0p ps=0u w=4.38e+06u l=500000u
X157 D G S S sky130_fd_pr__pfet_g5v0d10v5 ad=0p pd=0u as=0p ps=0u w=4.38e+06u l=500000u
X158 D G S S sky130_fd_pr__pfet_g5v0d10v5 ad=0p pd=0u as=0p ps=0u w=4.38e+06u l=500000u
X159 S G D S sky130_fd_pr__pfet_g5v0d10v5 ad=0p pd=0u as=0p ps=0u w=4.38e+06u l=500000u
X160 D G S S sky130_fd_pr__pfet_g5v0d10v5 ad=0p pd=0u as=0p ps=0u w=4.38e+06u l=500000u
X161 D G S S sky130_fd_pr__pfet_g5v0d10v5 ad=0p pd=0u as=0p ps=0u w=4.38e+06u l=500000u
X162 D G S S sky130_fd_pr__pfet_g5v0d10v5 ad=0p pd=0u as=0p ps=0u w=4.38e+06u l=500000u
X163 D G S S sky130_fd_pr__pfet_g5v0d10v5 ad=0p pd=0u as=0p ps=0u w=4.38e+06u l=500000u
X164 S G D S sky130_fd_pr__pfet_g5v0d10v5 ad=0p pd=0u as=0p ps=0u w=4.38e+06u l=500000u
X165 D G S S sky130_fd_pr__pfet_g5v0d10v5 ad=0p pd=0u as=0p ps=0u w=4.38e+06u l=500000u
X166 S G D S sky130_fd_pr__pfet_g5v0d10v5 ad=0p pd=0u as=0p ps=0u w=4.38e+06u l=500000u
X167 D G S S sky130_fd_pr__pfet_g5v0d10v5 ad=0p pd=0u as=0p ps=0u w=4.38e+06u l=500000u
X168 D G S S sky130_fd_pr__pfet_g5v0d10v5 ad=0p pd=0u as=0p ps=0u w=4.38e+06u l=500000u
X169 D G S S sky130_fd_pr__pfet_g5v0d10v5 ad=0p pd=0u as=0p ps=0u w=4.38e+06u l=500000u
X170 D G S S sky130_fd_pr__pfet_g5v0d10v5 ad=0p pd=0u as=0p ps=0u w=4.38e+06u l=500000u
X171 S G D S sky130_fd_pr__pfet_g5v0d10v5 ad=0p pd=0u as=0p ps=0u w=4.38e+06u l=500000u
X172 D G S S sky130_fd_pr__pfet_g5v0d10v5 ad=0p pd=0u as=0p ps=0u w=4.38e+06u l=500000u
X173 D G S S sky130_fd_pr__pfet_g5v0d10v5 ad=0p pd=0u as=0p ps=0u w=4.38e+06u l=500000u
X174 S G D S sky130_fd_pr__pfet_g5v0d10v5 ad=0p pd=0u as=0p ps=0u w=4.38e+06u l=500000u
X175 S G D S sky130_fd_pr__pfet_g5v0d10v5 ad=0p pd=0u as=0p ps=0u w=4.38e+06u l=500000u
X176 S G D S sky130_fd_pr__pfet_g5v0d10v5 ad=0p pd=0u as=0p ps=0u w=4.38e+06u l=500000u
X177 S G D S sky130_fd_pr__pfet_g5v0d10v5 ad=0p pd=0u as=0p ps=0u w=4.38e+06u l=500000u
X178 S G D S sky130_fd_pr__pfet_g5v0d10v5 ad=0p pd=0u as=0p ps=0u w=4.38e+06u l=500000u
X179 D G S S sky130_fd_pr__pfet_g5v0d10v5 ad=0p pd=0u as=0p ps=0u w=4.38e+06u l=500000u
X180 S G D S sky130_fd_pr__pfet_g5v0d10v5 ad=0p pd=0u as=0p ps=0u w=4.38e+06u l=500000u
X181 D G S S sky130_fd_pr__pfet_g5v0d10v5 ad=0p pd=0u as=0p ps=0u w=4.38e+06u l=500000u
X182 D G S S sky130_fd_pr__pfet_g5v0d10v5 ad=0p pd=0u as=0p ps=0u w=4.38e+06u l=500000u
X183 S G D S sky130_fd_pr__pfet_g5v0d10v5 ad=0p pd=0u as=0p ps=0u w=4.38e+06u l=500000u
X184 D G S S sky130_fd_pr__pfet_g5v0d10v5 ad=0p pd=0u as=0p ps=0u w=4.38e+06u l=500000u
X185 S G D S sky130_fd_pr__pfet_g5v0d10v5 ad=0p pd=0u as=0p ps=0u w=4.38e+06u l=500000u
X186 D G S S sky130_fd_pr__pfet_g5v0d10v5 ad=0p pd=0u as=0p ps=0u w=4.38e+06u l=500000u
X187 S G D S sky130_fd_pr__pfet_g5v0d10v5 ad=0p pd=0u as=0p ps=0u w=4.38e+06u l=500000u
X188 S G D S sky130_fd_pr__pfet_g5v0d10v5 ad=0p pd=0u as=0p ps=0u w=4.38e+06u l=500000u
X189 D G S S sky130_fd_pr__pfet_g5v0d10v5 ad=0p pd=0u as=0p ps=0u w=4.38e+06u l=500000u
X190 S G D S sky130_fd_pr__pfet_g5v0d10v5 ad=0p pd=0u as=0p ps=0u w=4.38e+06u l=500000u
X191 D G S S sky130_fd_pr__pfet_g5v0d10v5 ad=0p pd=0u as=0p ps=0u w=4.38e+06u l=500000u
X192 D G S S sky130_fd_pr__pfet_g5v0d10v5 ad=0p pd=0u as=0p ps=0u w=4.38e+06u l=500000u
X193 D G S S sky130_fd_pr__pfet_g5v0d10v5 ad=0p pd=0u as=0p ps=0u w=4.38e+06u l=500000u
X194 D G S S sky130_fd_pr__pfet_g5v0d10v5 ad=0p pd=0u as=0p ps=0u w=4.38e+06u l=500000u
X195 D G S S sky130_fd_pr__pfet_g5v0d10v5 ad=0p pd=0u as=0p ps=0u w=4.38e+06u l=500000u
X196 S G D S sky130_fd_pr__pfet_g5v0d10v5 ad=0p pd=0u as=0p ps=0u w=4.38e+06u l=500000u
X197 D G S S sky130_fd_pr__pfet_g5v0d10v5 ad=0p pd=0u as=0p ps=0u w=4.38e+06u l=500000u
X198 D G S S sky130_fd_pr__pfet_g5v0d10v5 ad=0p pd=0u as=0p ps=0u w=4.38e+06u l=500000u
X199 D G S S sky130_fd_pr__pfet_g5v0d10v5 ad=0p pd=0u as=0p ps=0u w=4.38e+06u l=500000u
X200 S G D S sky130_fd_pr__pfet_g5v0d10v5 ad=0p pd=0u as=0p ps=0u w=4.38e+06u l=500000u
X201 D G S S sky130_fd_pr__pfet_g5v0d10v5 ad=0p pd=0u as=0p ps=0u w=4.38e+06u l=500000u
X202 S G D S sky130_fd_pr__pfet_g5v0d10v5 ad=0p pd=0u as=0p ps=0u w=4.38e+06u l=500000u
X203 D G S S sky130_fd_pr__pfet_g5v0d10v5 ad=0p pd=0u as=0p ps=0u w=4.38e+06u l=500000u
X204 D G S S sky130_fd_pr__pfet_g5v0d10v5 ad=0p pd=0u as=0p ps=0u w=4.38e+06u l=500000u
X205 D G S S sky130_fd_pr__pfet_g5v0d10v5 ad=0p pd=0u as=0p ps=0u w=4.38e+06u l=500000u
X206 D G S S sky130_fd_pr__pfet_g5v0d10v5 ad=0p pd=0u as=0p ps=0u w=4.38e+06u l=500000u
X207 D G S S sky130_fd_pr__pfet_g5v0d10v5 ad=0p pd=0u as=0p ps=0u w=4.38e+06u l=500000u
X208 S G D S sky130_fd_pr__pfet_g5v0d10v5 ad=0p pd=0u as=0p ps=0u w=4.38e+06u l=500000u
X209 D G S S sky130_fd_pr__pfet_g5v0d10v5 ad=0p pd=0u as=0p ps=0u w=4.38e+06u l=500000u
X210 D G S S sky130_fd_pr__pfet_g5v0d10v5 ad=0p pd=0u as=0p ps=0u w=4.38e+06u l=500000u
X211 S G D S sky130_fd_pr__pfet_g5v0d10v5 ad=0p pd=0u as=0p ps=0u w=4.38e+06u l=500000u
X212 D G S S sky130_fd_pr__pfet_g5v0d10v5 ad=0p pd=0u as=0p ps=0u w=4.38e+06u l=500000u
X213 S G D S sky130_fd_pr__pfet_g5v0d10v5 ad=0p pd=0u as=0p ps=0u w=4.38e+06u l=500000u
X214 D G S S sky130_fd_pr__pfet_g5v0d10v5 ad=0p pd=0u as=0p ps=0u w=4.38e+06u l=500000u
X215 D G S S sky130_fd_pr__pfet_g5v0d10v5 ad=0p pd=0u as=0p ps=0u w=4.38e+06u l=500000u
X216 D G S S sky130_fd_pr__pfet_g5v0d10v5 ad=0p pd=0u as=0p ps=0u w=4.38e+06u l=500000u
X217 S G D S sky130_fd_pr__pfet_g5v0d10v5 ad=0p pd=0u as=0p ps=0u w=4.38e+06u l=500000u
X218 D G S S sky130_fd_pr__pfet_g5v0d10v5 ad=0p pd=0u as=0p ps=0u w=4.38e+06u l=500000u
X219 D G S S sky130_fd_pr__pfet_g5v0d10v5 ad=0p pd=0u as=0p ps=0u w=4.38e+06u l=500000u
X220 D G S S sky130_fd_pr__pfet_g5v0d10v5 ad=0p pd=0u as=0p ps=0u w=4.38e+06u l=500000u
X221 S G D S sky130_fd_pr__pfet_g5v0d10v5 ad=0p pd=0u as=0p ps=0u w=4.38e+06u l=500000u
X222 D G S S sky130_fd_pr__pfet_g5v0d10v5 ad=0p pd=0u as=0p ps=0u w=4.38e+06u l=500000u
X223 S G D S sky130_fd_pr__pfet_g5v0d10v5 ad=0p pd=0u as=0p ps=0u w=4.38e+06u l=500000u
X224 D G S S sky130_fd_pr__pfet_g5v0d10v5 ad=0p pd=0u as=0p ps=0u w=4.38e+06u l=500000u
X225 S G D S sky130_fd_pr__pfet_g5v0d10v5 ad=0p pd=0u as=0p ps=0u w=4.38e+06u l=500000u
X226 D G S S sky130_fd_pr__pfet_g5v0d10v5 ad=0p pd=0u as=0p ps=0u w=4.38e+06u l=500000u
X227 D G S S sky130_fd_pr__pfet_g5v0d10v5 ad=0p pd=0u as=0p ps=0u w=4.38e+06u l=500000u
X228 D G S S sky130_fd_pr__pfet_g5v0d10v5 ad=0p pd=0u as=0p ps=0u w=4.38e+06u l=500000u
X229 D G S S sky130_fd_pr__pfet_g5v0d10v5 ad=0p pd=0u as=0p ps=0u w=4.38e+06u l=500000u
X230 S G D S sky130_fd_pr__pfet_g5v0d10v5 ad=0p pd=0u as=0p ps=0u w=4.38e+06u l=500000u
X231 D G S S sky130_fd_pr__pfet_g5v0d10v5 ad=0p pd=0u as=0p ps=0u w=4.38e+06u l=500000u
X232 D G S S sky130_fd_pr__pfet_g5v0d10v5 ad=0p pd=0u as=0p ps=0u w=4.38e+06u l=500000u
X233 D G S S sky130_fd_pr__pfet_g5v0d10v5 ad=0p pd=0u as=0p ps=0u w=4.38e+06u l=500000u
X234 D G S S sky130_fd_pr__pfet_g5v0d10v5 ad=0p pd=0u as=0p ps=0u w=4.38e+06u l=500000u
X235 D G S S sky130_fd_pr__pfet_g5v0d10v5 ad=0p pd=0u as=0p ps=0u w=4.38e+06u l=500000u
X236 D G S S sky130_fd_pr__pfet_g5v0d10v5 ad=0p pd=0u as=0p ps=0u w=4.38e+06u l=500000u
X237 S G D S sky130_fd_pr__pfet_g5v0d10v5 ad=0p pd=0u as=0p ps=0u w=4.38e+06u l=500000u
X238 D G S S sky130_fd_pr__pfet_g5v0d10v5 ad=0p pd=0u as=0p ps=0u w=4.38e+06u l=500000u
X239 S G D S sky130_fd_pr__pfet_g5v0d10v5 ad=0p pd=0u as=0p ps=0u w=4.38e+06u l=500000u
X240 S G D S sky130_fd_pr__pfet_g5v0d10v5 ad=0p pd=0u as=0p ps=0u w=4.38e+06u l=500000u
X241 D G S S sky130_fd_pr__pfet_g5v0d10v5 ad=0p pd=0u as=0p ps=0u w=4.38e+06u l=500000u
X242 D G S S sky130_fd_pr__pfet_g5v0d10v5 ad=0p pd=0u as=0p ps=0u w=4.38e+06u l=500000u
X243 D G S S sky130_fd_pr__pfet_g5v0d10v5 ad=0p pd=0u as=0p ps=0u w=4.38e+06u l=500000u
X244 S G D S sky130_fd_pr__pfet_g5v0d10v5 ad=0p pd=0u as=0p ps=0u w=4.38e+06u l=500000u
X245 S G D S sky130_fd_pr__pfet_g5v0d10v5 ad=0p pd=0u as=0p ps=0u w=4.38e+06u l=500000u
X246 D G S S sky130_fd_pr__pfet_g5v0d10v5 ad=0p pd=0u as=0p ps=0u w=4.38e+06u l=500000u
X247 D G S S sky130_fd_pr__pfet_g5v0d10v5 ad=0p pd=0u as=0p ps=0u w=4.38e+06u l=500000u
X248 S G D S sky130_fd_pr__pfet_g5v0d10v5 ad=0p pd=0u as=0p ps=0u w=4.38e+06u l=500000u
X249 D G S S sky130_fd_pr__pfet_g5v0d10v5 ad=0p pd=0u as=0p ps=0u w=4.38e+06u l=500000u
X250 S G D S sky130_fd_pr__pfet_g5v0d10v5 ad=0p pd=0u as=0p ps=0u w=4.38e+06u l=500000u
X251 D G S S sky130_fd_pr__pfet_g5v0d10v5 ad=0p pd=0u as=0p ps=0u w=4.38e+06u l=500000u
X252 D G S S sky130_fd_pr__pfet_g5v0d10v5 ad=0p pd=0u as=0p ps=0u w=4.38e+06u l=500000u
X253 D G S S sky130_fd_pr__pfet_g5v0d10v5 ad=0p pd=0u as=0p ps=0u w=4.38e+06u l=500000u
X254 S G D S sky130_fd_pr__pfet_g5v0d10v5 ad=0p pd=0u as=0p ps=0u w=4.38e+06u l=500000u
X255 D G S S sky130_fd_pr__pfet_g5v0d10v5 ad=0p pd=0u as=0p ps=0u w=4.38e+06u l=500000u
X256 D G S S sky130_fd_pr__pfet_g5v0d10v5 ad=0p pd=0u as=0p ps=0u w=4.38e+06u l=500000u
X257 S G D S sky130_fd_pr__pfet_g5v0d10v5 ad=0p pd=0u as=0p ps=0u w=4.38e+06u l=500000u
X258 D G S S sky130_fd_pr__pfet_g5v0d10v5 ad=0p pd=0u as=0p ps=0u w=4.38e+06u l=500000u
X259 D G S S sky130_fd_pr__pfet_g5v0d10v5 ad=0p pd=0u as=0p ps=0u w=4.38e+06u l=500000u
X260 D G S S sky130_fd_pr__pfet_g5v0d10v5 ad=0p pd=0u as=0p ps=0u w=4.38e+06u l=500000u
X261 D G S S sky130_fd_pr__pfet_g5v0d10v5 ad=0p pd=0u as=0p ps=0u w=4.38e+06u l=500000u
X262 D G S S sky130_fd_pr__pfet_g5v0d10v5 ad=0p pd=0u as=0p ps=0u w=4.38e+06u l=500000u
X263 S G D S sky130_fd_pr__pfet_g5v0d10v5 ad=0p pd=0u as=0p ps=0u w=4.38e+06u l=500000u
X264 D G S S sky130_fd_pr__pfet_g5v0d10v5 ad=0p pd=0u as=0p ps=0u w=4.38e+06u l=500000u
X265 D G S S sky130_fd_pr__pfet_g5v0d10v5 ad=0p pd=0u as=0p ps=0u w=4.38e+06u l=500000u
X266 D G S S sky130_fd_pr__pfet_g5v0d10v5 ad=0p pd=0u as=0p ps=0u w=4.38e+06u l=500000u
X267 D G S S sky130_fd_pr__pfet_g5v0d10v5 ad=0p pd=0u as=0p ps=0u w=4.38e+06u l=500000u
X268 D G S S sky130_fd_pr__pfet_g5v0d10v5 ad=0p pd=0u as=0p ps=0u w=4.38e+06u l=500000u
X269 S G D S sky130_fd_pr__pfet_g5v0d10v5 ad=0p pd=0u as=0p ps=0u w=4.38e+06u l=500000u
X270 D G S S sky130_fd_pr__pfet_g5v0d10v5 ad=0p pd=0u as=0p ps=0u w=4.38e+06u l=500000u
X271 S G D S sky130_fd_pr__pfet_g5v0d10v5 ad=0p pd=0u as=0p ps=0u w=4.38e+06u l=500000u
X272 S G D S sky130_fd_pr__pfet_g5v0d10v5 ad=0p pd=0u as=0p ps=0u w=4.38e+06u l=500000u
X273 D G S S sky130_fd_pr__pfet_g5v0d10v5 ad=0p pd=0u as=0p ps=0u w=4.38e+06u l=500000u
X274 S G D S sky130_fd_pr__pfet_g5v0d10v5 ad=0p pd=0u as=0p ps=0u w=4.38e+06u l=500000u
X275 S G D S sky130_fd_pr__pfet_g5v0d10v5 ad=0p pd=0u as=0p ps=0u w=4.38e+06u l=500000u
X276 D G S S sky130_fd_pr__pfet_g5v0d10v5 ad=0p pd=0u as=0p ps=0u w=4.38e+06u l=500000u
X277 D G S S sky130_fd_pr__pfet_g5v0d10v5 ad=0p pd=0u as=0p ps=0u w=4.38e+06u l=500000u
X278 D G S S sky130_fd_pr__pfet_g5v0d10v5 ad=0p pd=0u as=0p ps=0u w=4.38e+06u l=500000u
X279 S G D S sky130_fd_pr__pfet_g5v0d10v5 ad=0p pd=0u as=0p ps=0u w=4.38e+06u l=500000u
X280 S G D S sky130_fd_pr__pfet_g5v0d10v5 ad=0p pd=0u as=0p ps=0u w=4.38e+06u l=500000u
X281 S G D S sky130_fd_pr__pfet_g5v0d10v5 ad=0p pd=0u as=0p ps=0u w=4.38e+06u l=500000u
X282 D G S S sky130_fd_pr__pfet_g5v0d10v5 ad=0p pd=0u as=0p ps=0u w=4.38e+06u l=500000u
X283 D G S S sky130_fd_pr__pfet_g5v0d10v5 ad=0p pd=0u as=0p ps=0u w=4.38e+06u l=500000u
X284 S G D S sky130_fd_pr__pfet_g5v0d10v5 ad=0p pd=0u as=0p ps=0u w=4.38e+06u l=500000u
X285 S G D S sky130_fd_pr__pfet_g5v0d10v5 ad=0p pd=0u as=0p ps=0u w=4.38e+06u l=500000u
X286 D G S S sky130_fd_pr__pfet_g5v0d10v5 ad=0p pd=0u as=0p ps=0u w=4.38e+06u l=500000u
X287 D G S S sky130_fd_pr__pfet_g5v0d10v5 ad=0p pd=0u as=0p ps=0u w=4.38e+06u l=500000u
X288 S G D S sky130_fd_pr__pfet_g5v0d10v5 ad=0p pd=0u as=0p ps=0u w=4.38e+06u l=500000u
X289 S G D S sky130_fd_pr__pfet_g5v0d10v5 ad=0p pd=0u as=0p ps=0u w=4.38e+06u l=500000u
X290 D G S S sky130_fd_pr__pfet_g5v0d10v5 ad=0p pd=0u as=0p ps=0u w=4.38e+06u l=500000u
X291 S G D S sky130_fd_pr__pfet_g5v0d10v5 ad=0p pd=0u as=0p ps=0u w=4.38e+06u l=500000u
X292 D G S S sky130_fd_pr__pfet_g5v0d10v5 ad=0p pd=0u as=0p ps=0u w=4.38e+06u l=500000u
X293 S G D S sky130_fd_pr__pfet_g5v0d10v5 ad=0p pd=0u as=0p ps=0u w=4.38e+06u l=500000u
X294 D G S S sky130_fd_pr__pfet_g5v0d10v5 ad=0p pd=0u as=0p ps=0u w=4.38e+06u l=500000u
X295 D G S S sky130_fd_pr__pfet_g5v0d10v5 ad=0p pd=0u as=0p ps=0u w=4.38e+06u l=500000u
X296 D G S S sky130_fd_pr__pfet_g5v0d10v5 ad=0p pd=0u as=0p ps=0u w=4.38e+06u l=500000u
X297 D G S S sky130_fd_pr__pfet_g5v0d10v5 ad=0p pd=0u as=0p ps=0u w=4.38e+06u l=500000u
X298 S G D S sky130_fd_pr__pfet_g5v0d10v5 ad=0p pd=0u as=0p ps=0u w=4.38e+06u l=500000u
X299 D G S S sky130_fd_pr__pfet_g5v0d10v5 ad=0p pd=0u as=0p ps=0u w=4.38e+06u l=500000u
X300 D G S S sky130_fd_pr__pfet_g5v0d10v5 ad=0p pd=0u as=0p ps=0u w=4.38e+06u l=500000u
X301 S G D S sky130_fd_pr__pfet_g5v0d10v5 ad=0p pd=0u as=0p ps=0u w=4.38e+06u l=500000u
X302 D G S S sky130_fd_pr__pfet_g5v0d10v5 ad=0p pd=0u as=0p ps=0u w=4.38e+06u l=500000u
X303 S G D S sky130_fd_pr__pfet_g5v0d10v5 ad=0p pd=0u as=0p ps=0u w=4.38e+06u l=500000u
X304 D G S S sky130_fd_pr__pfet_g5v0d10v5 ad=0p pd=0u as=0p ps=0u w=4.38e+06u l=500000u
X305 S G D S sky130_fd_pr__pfet_g5v0d10v5 ad=0p pd=0u as=0p ps=0u w=4.38e+06u l=500000u
X306 D G S S sky130_fd_pr__pfet_g5v0d10v5 ad=0p pd=0u as=0p ps=0u w=4.38e+06u l=500000u
X307 D G S S sky130_fd_pr__pfet_g5v0d10v5 ad=0p pd=0u as=0p ps=0u w=4.38e+06u l=500000u
X308 D G S S sky130_fd_pr__pfet_g5v0d10v5 ad=0p pd=0u as=0p ps=0u w=4.38e+06u l=500000u
X309 S G D S sky130_fd_pr__pfet_g5v0d10v5 ad=0p pd=0u as=0p ps=0u w=4.38e+06u l=500000u
X310 D G S S sky130_fd_pr__pfet_g5v0d10v5 ad=0p pd=0u as=0p ps=0u w=4.38e+06u l=500000u
X311 S G D S sky130_fd_pr__pfet_g5v0d10v5 ad=0p pd=0u as=0p ps=0u w=4.38e+06u l=500000u
X312 D G S S sky130_fd_pr__pfet_g5v0d10v5 ad=0p pd=0u as=0p ps=0u w=4.38e+06u l=500000u
X313 D G S S sky130_fd_pr__pfet_g5v0d10v5 ad=0p pd=0u as=0p ps=0u w=4.38e+06u l=500000u
X314 S G D S sky130_fd_pr__pfet_g5v0d10v5 ad=0p pd=0u as=0p ps=0u w=4.38e+06u l=500000u
X315 S G D S sky130_fd_pr__pfet_g5v0d10v5 ad=0p pd=0u as=0p ps=0u w=4.38e+06u l=500000u
X316 D G S S sky130_fd_pr__pfet_g5v0d10v5 ad=0p pd=0u as=0p ps=0u w=4.38e+06u l=500000u
X317 S G D S sky130_fd_pr__pfet_g5v0d10v5 ad=0p pd=0u as=0p ps=0u w=4.38e+06u l=500000u
X318 D G S S sky130_fd_pr__pfet_g5v0d10v5 ad=0p pd=0u as=0p ps=0u w=4.38e+06u l=500000u
X319 D G S S sky130_fd_pr__pfet_g5v0d10v5 ad=0p pd=0u as=0p ps=0u w=4.38e+06u l=500000u
X320 D G S S sky130_fd_pr__pfet_g5v0d10v5 ad=0p pd=0u as=0p ps=0u w=4.38e+06u l=500000u
X321 D G S S sky130_fd_pr__pfet_g5v0d10v5 ad=0p pd=0u as=0p ps=0u w=4.38e+06u l=500000u
X322 D G S S sky130_fd_pr__pfet_g5v0d10v5 ad=0p pd=0u as=0p ps=0u w=4.38e+06u l=500000u
X323 D G S S sky130_fd_pr__pfet_g5v0d10v5 ad=0p pd=0u as=0p ps=0u w=4.38e+06u l=500000u
X324 S G D S sky130_fd_pr__pfet_g5v0d10v5 ad=0p pd=0u as=0p ps=0u w=4.38e+06u l=500000u
X325 D G S S sky130_fd_pr__pfet_g5v0d10v5 ad=0p pd=0u as=0p ps=0u w=4.38e+06u l=500000u
X326 D G S S sky130_fd_pr__pfet_g5v0d10v5 ad=0p pd=0u as=0p ps=0u w=4.38e+06u l=500000u
X327 D G S S sky130_fd_pr__pfet_g5v0d10v5 ad=0p pd=0u as=0p ps=0u w=4.38e+06u l=500000u
X328 D G S S sky130_fd_pr__pfet_g5v0d10v5 ad=0p pd=0u as=0p ps=0u w=4.38e+06u l=500000u
X329 S G D S sky130_fd_pr__pfet_g5v0d10v5 ad=0p pd=0u as=0p ps=0u w=4.38e+06u l=500000u
X330 S G D S sky130_fd_pr__pfet_g5v0d10v5 ad=0p pd=0u as=0p ps=0u w=4.38e+06u l=500000u
X331 S G D S sky130_fd_pr__pfet_g5v0d10v5 ad=0p pd=0u as=0p ps=0u w=4.38e+06u l=500000u
X332 D G S S sky130_fd_pr__pfet_g5v0d10v5 ad=0p pd=0u as=0p ps=0u w=4.38e+06u l=500000u
X333 S G D S sky130_fd_pr__pfet_g5v0d10v5 ad=0p pd=0u as=0p ps=0u w=4.38e+06u l=500000u
X334 D G S S sky130_fd_pr__pfet_g5v0d10v5 ad=0p pd=0u as=0p ps=0u w=4.38e+06u l=500000u
X335 D G S S sky130_fd_pr__pfet_g5v0d10v5 ad=0p pd=0u as=0p ps=0u w=4.38e+06u l=500000u
X336 S G D S sky130_fd_pr__pfet_g5v0d10v5 ad=0p pd=0u as=0p ps=0u w=4.38e+06u l=500000u
X337 D G S S sky130_fd_pr__pfet_g5v0d10v5 ad=0p pd=0u as=0p ps=0u w=4.38e+06u l=500000u
X338 D G S S sky130_fd_pr__pfet_g5v0d10v5 ad=0p pd=0u as=0p ps=0u w=4.38e+06u l=500000u
X339 S G D S sky130_fd_pr__pfet_g5v0d10v5 ad=0p pd=0u as=0p ps=0u w=4.38e+06u l=500000u