* NGSPICE file created from mag_files/POSTLAYOUT/pmos_flat_12x12.ext - technology: sky130A

.subckt pmos_flat_12x12 G S D PW
X0 S.t286 G D S.t90 sky130_fd_pr__pfet_g5v0d10v5 ad=6.8636 pd=16.6 as=2.7846 ps=18.84 w=4.38 l=0.5
X1 S.t285 G D S.t97 sky130_fd_pr__pfet_g5v0d10v5 ad=6.8636 pd=16.6 as=2.7846 ps=18.84 w=4.38 l=0.5
X2 S.t284 G D S.t34 sky130_fd_pr__pfet_g5v0d10v5 ad=6.8636 pd=16.6 as=2.7846 ps=18.84 w=4.38 l=0.5
X3 D G S.t283 S.t0 sky130_fd_pr__pfet_g5v0d10v5 ad=2.7846 pd=18.84 as=6.8636 ps=16.6 w=4.38 l=0.5
X4 D G S.t282 S.t4 sky130_fd_pr__pfet_g5v0d10v5 ad=2.7846 pd=18.84 as=6.8636 ps=16.6 w=4.38 l=0.5
X5 D G S.t281 S.t10 sky130_fd_pr__pfet_g5v0d10v5 ad=2.0274 pd=14.09 as=6.2285 ps=16.31 w=4.38 l=0.5
X6 S.t280 G D S.t10 sky130_fd_pr__pfet_g5v0d10v5 ad=6.2285 pd=16.31 as=2.0274 ps=14.09 w=4.38 l=0.5
X7 S.t279 G D S.t4 sky130_fd_pr__pfet_g5v0d10v5 ad=6.8636 pd=16.6 as=2.0274 ps=14.09 w=4.38 l=0.5
X8 D G S.t278 S.t78 sky130_fd_pr__pfet_g5v0d10v5 ad=2.0274 pd=14.09 as=6.8636 ps=16.6 w=4.38 l=0.5
X9 D G S.t277 S.t90 sky130_fd_pr__pfet_g5v0d10v5 ad=2.7846 pd=18.84 as=6.8636 ps=16.6 w=4.38 l=0.5
X10 S.t276 G D S.t4 sky130_fd_pr__pfet_g5v0d10v5 ad=6.8636 pd=16.6 as=2.7846 ps=18.84 w=4.38 l=0.5
X11 S.t275 G D S.t64 sky130_fd_pr__pfet_g5v0d10v5 ad=6.8636 pd=16.6 as=2.7846 ps=18.84 w=4.38 l=0.5
X12 S.t274 G D S.t21 sky130_fd_pr__pfet_g5v0d10v5 ad=6.8636 pd=16.6 as=2.0274 ps=14.09 w=4.38 l=0.5
X13 D G S.t273 S.t29 sky130_fd_pr__pfet_g5v0d10v5 ad=2.7846 pd=18.84 as=6.8636 ps=16.6 w=4.38 l=0.5
X14 S.t272 G D S.t90 sky130_fd_pr__pfet_g5v0d10v5 ad=6.8636 pd=16.6 as=2.7846 ps=18.84 w=4.38 l=0.5
X15 D G S.t271 S.t19 sky130_fd_pr__pfet_g5v0d10v5 ad=2.7846 pd=18.84 as=6.8636 ps=16.6 w=4.38 l=0.5
X16 D G S.t270 S.t54 sky130_fd_pr__pfet_g5v0d10v5 ad=2.7846 pd=18.84 as=6.8636 ps=16.6 w=4.38 l=0.5
X17 D G S.t269 S.t97 sky130_fd_pr__pfet_g5v0d10v5 ad=2.7846 pd=18.84 as=6.8636 ps=16.6 w=4.38 l=0.5
X18 D G S.t268 S.t34 sky130_fd_pr__pfet_g5v0d10v5 ad=2.7846 pd=18.84 as=6.8636 ps=16.6 w=4.38 l=0.5
X19 D G S.t267 S.t76 sky130_fd_pr__pfet_g5v0d10v5 ad=2.7846 pd=18.84 as=6.2285 ps=16.31 w=4.38 l=0.5
X20 D G S.t266 S.t76 sky130_fd_pr__pfet_g5v0d10v5 ad=2.7846 pd=18.84 as=6.8636 ps=16.6 w=4.38 l=0.5
X21 D G S.t265 S.t10 sky130_fd_pr__pfet_g5v0d10v5 ad=2.0274 pd=14.09 as=6.2285 ps=16.31 w=4.38 l=0.5
X22 D G S.t264 S.t4 sky130_fd_pr__pfet_g5v0d10v5 ad=2.7846 pd=18.84 as=6.8636 ps=16.6 w=4.38 l=0.5
X23 S.t263 G D S.t78 sky130_fd_pr__pfet_g5v0d10v5 ad=6.8636 pd=16.6 as=2.7846 ps=18.84 w=4.38 l=0.5
X24 D G S.t262 S.t64 sky130_fd_pr__pfet_g5v0d10v5 ad=2.7846 pd=18.84 as=6.8636 ps=16.6 w=4.38 l=0.5
X25 D G S.t261 S.t26 sky130_fd_pr__pfet_g5v0d10v5 ad=2.0274 pd=14.09 as=6.8636 ps=16.6 w=4.38 l=0.5
X26 S.t260 G D S.t19 sky130_fd_pr__pfet_g5v0d10v5 ad=6.8636 pd=16.6 as=2.7846 ps=18.84 w=4.38 l=0.5
X27 D G S.t259 S.t78 sky130_fd_pr__pfet_g5v0d10v5 ad=2.7846 pd=18.84 as=6.8636 ps=16.6 w=4.38 l=0.5
X28 S.t258 G D S.t64 sky130_fd_pr__pfet_g5v0d10v5 ad=6.8636 pd=16.6 as=2.7846 ps=18.84 w=4.38 l=0.5
X29 S.t257 G D S.t54 sky130_fd_pr__pfet_g5v0d10v5 ad=6.8636 pd=16.6 as=2.7846 ps=18.84 w=4.38 l=0.5
X30 D G S.t256 S.t54 sky130_fd_pr__pfet_g5v0d10v5 ad=2.7846 pd=18.84 as=6.8636 ps=16.6 w=4.38 l=0.5
X31 D G S.t255 S.t19 sky130_fd_pr__pfet_g5v0d10v5 ad=2.7846 pd=18.84 as=6.8636 ps=16.6 w=4.38 l=0.5
X32 S.t254 G D S.t76 sky130_fd_pr__pfet_g5v0d10v5 ad=6.8636 pd=16.6 as=2.7846 ps=18.84 w=4.38 l=0.5
X33 S.t253 G D S.t26 sky130_fd_pr__pfet_g5v0d10v5 ad=6.8636 pd=16.6 as=2.7846 ps=18.84 w=4.38 l=0.5
X34 S.t252 G D S.t0 sky130_fd_pr__pfet_g5v0d10v5 ad=6.8636 pd=16.6 as=2.7846 ps=18.84 w=4.38 l=0.5
X35 D G S.t251 S.t10 sky130_fd_pr__pfet_g5v0d10v5 ad=2.0274 pd=14.09 as=6.2285 ps=16.31 w=4.38 l=0.5
X36 S.t250 G D S.t78 sky130_fd_pr__pfet_g5v0d10v5 ad=6.8636 pd=16.6 as=2.7846 ps=18.84 w=4.38 l=0.5
X37 D G S.t249 S.t26 sky130_fd_pr__pfet_g5v0d10v5 ad=2.7846 pd=18.84 as=6.8636 ps=16.6 w=4.38 l=0.5
X38 S.t248 G D S.t66 sky130_fd_pr__pfet_g5v0d10v5 ad=6.2285 pd=16.31 as=2.0274 ps=14.09 w=4.38 l=0.5
X39 D G S.t247 S.t66 sky130_fd_pr__pfet_g5v0d10v5 ad=2.0274 pd=14.09 as=6.2285 ps=16.31 w=4.38 l=0.5
X40 S.t246 G D S.t26 sky130_fd_pr__pfet_g5v0d10v5 ad=6.8636 pd=16.6 as=2.7846 ps=18.84 w=4.38 l=0.5
X41 S.t245 G D S.t64 sky130_fd_pr__pfet_g5v0d10v5 ad=6.8636 pd=16.6 as=2.0274 ps=14.09 w=4.38 l=0.5
X42 S.t244 G D S.t66 sky130_fd_pr__pfet_g5v0d10v5 ad=6.2285 pd=16.31 as=2.0274 ps=14.09 w=4.38 l=0.5
X43 D G S.t243 S.t24 sky130_fd_pr__pfet_g5v0d10v5 ad=2.7846 pd=18.84 as=6.8636 ps=16.6 w=4.38 l=0.5
X44 D G S.t242 S.t66 sky130_fd_pr__pfet_g5v0d10v5 ad=2.0274 pd=14.09 as=6.2285 ps=16.31 w=4.38 l=0.5
X45 S.t241 G D S.t36 sky130_fd_pr__pfet_g5v0d10v5 ad=6.8636 pd=16.6 as=2.7846 ps=18.84 w=4.38 l=0.5
X46 D G S.t240 S.t54 sky130_fd_pr__pfet_g5v0d10v5 ad=2.7846 pd=18.84 as=6.2285 ps=16.31 w=4.38 l=0.5
X47 S.t239 G D S.t31 sky130_fd_pr__pfet_g5v0d10v5 ad=6.8636 pd=16.6 as=2.7846 ps=18.84 w=4.38 l=0.5
X48 S.t238 G D S.t29 sky130_fd_pr__pfet_g5v0d10v5 ad=6.8636 pd=16.6 as=2.7846 ps=18.84 w=4.38 l=0.5
X49 D G S.t237 S.t90 sky130_fd_pr__pfet_g5v0d10v5 ad=2.7846 pd=18.84 as=6.8636 ps=16.6 w=4.38 l=0.5
X50 S.t236 G D S.t24 sky130_fd_pr__pfet_g5v0d10v5 ad=6.8636 pd=16.6 as=2.7846 ps=18.84 w=4.38 l=0.5
X51 S.t235 G D S.t29 sky130_fd_pr__pfet_g5v0d10v5 ad=6.2285 pd=16.31 as=2.0274 ps=14.09 w=4.38 l=0.5
X52 S.t234 G D S.t31 sky130_fd_pr__pfet_g5v0d10v5 ad=6.2285 pd=16.31 as=2.0274 ps=14.09 w=4.38 l=0.5
X53 S.t233 G D S.t36 sky130_fd_pr__pfet_g5v0d10v5 ad=6.8636 pd=16.6 as=2.7846 ps=18.84 w=4.38 l=0.5
X54 S.t232 G D S.t31 sky130_fd_pr__pfet_g5v0d10v5 ad=6.8636 pd=16.6 as=2.7846 ps=18.84 w=4.38 l=0.5
X55 S.t231 G D S.t78 sky130_fd_pr__pfet_g5v0d10v5 ad=6.8636 pd=16.6 as=2.7846 ps=18.84 w=4.38 l=0.5
X56 S.t230 G D S.t29 sky130_fd_pr__pfet_g5v0d10v5 ad=6.8636 pd=16.6 as=2.7846 ps=18.84 w=4.38 l=0.5
X57 D G S.t229 S.t8 sky130_fd_pr__pfet_g5v0d10v5 ad=2.7846 pd=18.84 as=6.8636 ps=16.6 w=4.38 l=0.5
X58 S.t228 G D S.t6 sky130_fd_pr__pfet_g5v0d10v5 ad=6.8636 pd=16.6 as=2.7846 ps=18.84 w=4.38 l=0.5
X59 D G S.t227 S.t0 sky130_fd_pr__pfet_g5v0d10v5 ad=2.7846 pd=18.84 as=6.8636 ps=16.6 w=4.38 l=0.5
X60 D G S.t226 S.t2 sky130_fd_pr__pfet_g5v0d10v5 ad=2.7846 pd=18.84 as=6.8636 ps=16.6 w=4.38 l=0.5
X61 D G S.t225 S.t8 sky130_fd_pr__pfet_g5v0d10v5 ad=2.0274 pd=14.09 as=6.2285 ps=16.31 w=4.38 l=0.5
X62 D G S.t224 S.t36 sky130_fd_pr__pfet_g5v0d10v5 ad=2.0274 pd=14.09 as=6.2285 ps=16.31 w=4.38 l=0.5
X63 D G S.t223 S.t15 sky130_fd_pr__pfet_g5v0d10v5 ad=2.7846 pd=18.84 as=6.8636 ps=16.6 w=4.38 l=0.5
X64 D G S.t222 S.t13 sky130_fd_pr__pfet_g5v0d10v5 ad=2.0274 pd=14.09 as=6.8636 ps=16.6 w=4.38 l=0.5
X65 S.t221 G D S.t31 sky130_fd_pr__pfet_g5v0d10v5 ad=6.8636 pd=16.6 as=2.7846 ps=18.84 w=4.38 l=0.5
X66 D G S.t220 S.t26 sky130_fd_pr__pfet_g5v0d10v5 ad=2.7846 pd=18.84 as=6.2285 ps=16.31 w=4.38 l=0.5
X67 D G S.t219 S.t31 sky130_fd_pr__pfet_g5v0d10v5 ad=2.7846 pd=18.84 as=6.8636 ps=16.6 w=4.38 l=0.5
X68 D G S.t218 S.t29 sky130_fd_pr__pfet_g5v0d10v5 ad=2.7846 pd=18.84 as=6.8636 ps=16.6 w=4.38 l=0.5
X69 D G S.t217 S.t8 sky130_fd_pr__pfet_g5v0d10v5 ad=2.7846 pd=18.84 as=6.8636 ps=16.6 w=4.38 l=0.5
X70 D G S.t216 S.t24 sky130_fd_pr__pfet_g5v0d10v5 ad=2.7846 pd=18.84 as=6.8636 ps=16.6 w=4.38 l=0.5
X71 D G S.t215 S.t97 sky130_fd_pr__pfet_g5v0d10v5 ad=2.7846 pd=18.84 as=6.8636 ps=16.6 w=4.38 l=0.5
X72 D G S.t214 S.t36 sky130_fd_pr__pfet_g5v0d10v5 ad=2.7846 pd=18.84 as=6.8636 ps=16.6 w=4.38 l=0.5
X73 S.t213 G D S.t15 sky130_fd_pr__pfet_g5v0d10v5 ad=6.2285 pd=16.31 as=2.0274 ps=14.09 w=4.38 l=0.5
X74 S.t212 G D S.t13 sky130_fd_pr__pfet_g5v0d10v5 ad=5.5934 pd=16.02 as=2.0274 ps=14.09 w=4.38 l=0.5
X75 D G S.t211 S.t29 sky130_fd_pr__pfet_g5v0d10v5 ad=2.7846 pd=18.84 as=6.8636 ps=16.6 w=4.38 l=0.5
X76 D G S.t210 S.t31 sky130_fd_pr__pfet_g5v0d10v5 ad=2.7846 pd=18.84 as=6.8636 ps=16.6 w=4.38 l=0.5
X77 S.t209 G D S.t8 sky130_fd_pr__pfet_g5v0d10v5 ad=6.8636 pd=16.6 as=2.7846 ps=18.84 w=4.38 l=0.5
X78 D G S.t208 S.t6 sky130_fd_pr__pfet_g5v0d10v5 ad=2.7846 pd=18.84 as=6.8636 ps=16.6 w=4.38 l=0.5
X79 D G S.t207 S.t21 sky130_fd_pr__pfet_g5v0d10v5 ad=2.7846 pd=18.84 as=6.2285 ps=16.31 w=4.38 l=0.5
X80 S.t206 G D S.t0 sky130_fd_pr__pfet_g5v0d10v5 ad=6.8636 pd=16.6 as=2.7846 ps=18.84 w=4.38 l=0.5
X81 S.t205 G D S.t2 sky130_fd_pr__pfet_g5v0d10v5 ad=6.8636 pd=16.6 as=2.7846 ps=18.84 w=4.38 l=0.5
X82 S.t204 G D S.t15 sky130_fd_pr__pfet_g5v0d10v5 ad=6.8636 pd=16.6 as=2.7846 ps=18.84 w=4.38 l=0.5
X83 S.t203 G D S.t13 sky130_fd_pr__pfet_g5v0d10v5 ad=6.2285 pd=16.31 as=2.7846 ps=18.84 w=4.38 l=0.5
X84 S.t202 G D S.t97 sky130_fd_pr__pfet_g5v0d10v5 ad=6.2285 pd=16.31 as=2.7846 ps=18.84 w=4.38 l=0.5
X85 S.t201 G D S.t34 sky130_fd_pr__pfet_g5v0d10v5 ad=6.2285 pd=16.31 as=2.7846 ps=18.84 w=4.38 l=0.5
X86 S.t200 G D S.t10 sky130_fd_pr__pfet_g5v0d10v5 ad=6.2285 pd=16.31 as=2.0274 ps=14.09 w=4.38 l=0.5
X87 S.t199 G D S.t8 sky130_fd_pr__pfet_g5v0d10v5 ad=6.8636 pd=16.6 as=2.7846 ps=18.84 w=4.38 l=0.5
X88 S.t198 G D S.t4 sky130_fd_pr__pfet_g5v0d10v5 ad=6.8636 pd=16.6 as=2.7846 ps=18.84 w=4.38 l=0.5
X89 S.t197 G D S.t21 sky130_fd_pr__pfet_g5v0d10v5 ad=6.2285 pd=16.31 as=1.3312 ps=9.38 w=4.38 l=0.5
X90 D G S.t196 S.t34 sky130_fd_pr__pfet_g5v0d10v5 ad=2.7846 pd=18.84 as=6.8636 ps=16.6 w=4.38 l=0.5
X91 S.t195 G D S.t90 sky130_fd_pr__pfet_g5v0d10v5 ad=6.8636 pd=16.6 as=2.7846 ps=18.84 w=4.38 l=0.5
X92 D G S.t194 S.t97 sky130_fd_pr__pfet_g5v0d10v5 ad=2.7846 pd=18.84 as=6.8636 ps=16.6 w=4.38 l=0.5
X93 S.t193 G D S.t97 sky130_fd_pr__pfet_g5v0d10v5 ad=6.8636 pd=16.6 as=2.7846 ps=18.84 w=4.38 l=0.5
X94 S.t192 G D S.t34 sky130_fd_pr__pfet_g5v0d10v5 ad=6.8636 pd=16.6 as=2.7846 ps=18.84 w=4.38 l=0.5
X95 D G S.t191 S.t76 sky130_fd_pr__pfet_g5v0d10v5 ad=2.0274 pd=14.09 as=6.8636 ps=16.6 w=4.38 l=0.5
X96 D G S.t190 S.t4 sky130_fd_pr__pfet_g5v0d10v5 ad=2.7846 pd=18.84 as=6.8636 ps=16.6 w=4.38 l=0.5
X97 D G S.t189 S.t10 sky130_fd_pr__pfet_g5v0d10v5 ad=2.0274 pd=14.09 as=6.2285 ps=16.31 w=4.38 l=0.5
X98 S.t188 G D S.t10 sky130_fd_pr__pfet_g5v0d10v5 ad=6.2285 pd=16.31 as=2.0274 ps=14.09 w=4.38 l=0.5
X99 D G S.t187 S.t78 sky130_fd_pr__pfet_g5v0d10v5 ad=2.7846 pd=18.84 as=6.8636 ps=16.6 w=4.38 l=0.5
X100 D G S.t186 S.t90 sky130_fd_pr__pfet_g5v0d10v5 ad=2.7846 pd=18.84 as=6.8636 ps=16.6 w=4.38 l=0.5
X101 S.t185 G D S.t4 sky130_fd_pr__pfet_g5v0d10v5 ad=6.8636 pd=16.6 as=2.7846 ps=18.84 w=4.38 l=0.5
X102 S.t184 G D S.t64 sky130_fd_pr__pfet_g5v0d10v5 ad=6.8636 pd=16.6 as=2.7846 ps=18.84 w=4.38 l=0.5
X103 S.t183 G D S.t21 sky130_fd_pr__pfet_g5v0d10v5 ad=6.8636 pd=16.6 as=2.0274 ps=14.09 w=4.38 l=0.5
X104 D G S.t182 S.t19 sky130_fd_pr__pfet_g5v0d10v5 ad=2.7846 pd=18.84 as=6.8636 ps=16.6 w=4.38 l=0.5
X105 D G S.t181 S.t54 sky130_fd_pr__pfet_g5v0d10v5 ad=2.7846 pd=18.84 as=6.8636 ps=16.6 w=4.38 l=0.5
X106 S.t180 G D S.t10 sky130_fd_pr__pfet_g5v0d10v5 ad=6.2285 pd=16.31 as=1.3312 ps=9.38 w=4.38 l=0.5
X107 D G S.t179 S.t2 sky130_fd_pr__pfet_g5v0d10v5 ad=2.7846 pd=18.84 as=6.8636 ps=16.6 w=4.38 l=0.5
X108 D G S.t178 S.t34 sky130_fd_pr__pfet_g5v0d10v5 ad=2.7846 pd=18.84 as=6.8636 ps=16.6 w=4.38 l=0.5
X109 D G S.t177 S.t97 sky130_fd_pr__pfet_g5v0d10v5 ad=2.7846 pd=18.84 as=6.8636 ps=16.6 w=4.38 l=0.5
X110 S.t176 G D S.t76 sky130_fd_pr__pfet_g5v0d10v5 ad=6.8636 pd=16.6 as=2.7846 ps=18.84 w=4.38 l=0.5
X111 D G S.t175 S.t76 sky130_fd_pr__pfet_g5v0d10v5 ad=2.7846 pd=18.84 as=6.8636 ps=16.6 w=4.38 l=0.5
X112 D G S.t174 S.t66 sky130_fd_pr__pfet_g5v0d10v5 ad=2.0274 pd=14.09 as=5.5934 ps=16.02 w=4.38 l=0.5
X113 S.t173 G D S.t78 sky130_fd_pr__pfet_g5v0d10v5 ad=6.8636 pd=16.6 as=2.7846 ps=18.84 w=4.38 l=0.5
X114 D G S.t172 S.t64 sky130_fd_pr__pfet_g5v0d10v5 ad=2.7846 pd=18.84 as=6.8636 ps=16.6 w=4.38 l=0.5
X115 D G S.t171 S.t26 sky130_fd_pr__pfet_g5v0d10v5 ad=2.7846 pd=18.84 as=6.8636 ps=16.6 w=4.38 l=0.5
X116 S.t170 G D S.t19 sky130_fd_pr__pfet_g5v0d10v5 ad=6.8636 pd=16.6 as=2.7846 ps=18.84 w=4.38 l=0.5
X117 D G S.t169 S.t78 sky130_fd_pr__pfet_g5v0d10v5 ad=2.7846 pd=18.84 as=6.8636 ps=16.6 w=4.38 l=0.5
X118 S.t168 G D S.t54 sky130_fd_pr__pfet_g5v0d10v5 ad=6.8636 pd=16.6 as=2.7846 ps=18.84 w=4.38 l=0.5
X119 S.t167 G D S.t2 sky130_fd_pr__pfet_g5v0d10v5 ad=6.8636 pd=16.6 as=2.7846 ps=18.84 w=4.38 l=0.5
X120 S.t166 G D S.t76 sky130_fd_pr__pfet_g5v0d10v5 ad=6.8636 pd=16.6 as=2.7846 ps=18.84 w=4.38 l=0.5
X121 S.t165 G D S.t26 sky130_fd_pr__pfet_g5v0d10v5 ad=6.8636 pd=16.6 as=2.7846 ps=18.84 w=4.38 l=0.5
X122 D G S.t164 S.t26 sky130_fd_pr__pfet_g5v0d10v5 ad=2.7846 pd=18.84 as=6.8636 ps=16.6 w=4.38 l=0.5
X123 S.t163 G D S.t6 sky130_fd_pr__pfet_g5v0d10v5 ad=6.8636 pd=16.6 as=2.7846 ps=18.84 w=4.38 l=0.5
X124 D G S.t162 S.t66 sky130_fd_pr__pfet_g5v0d10v5 ad=2.0274 pd=14.09 as=6.2285 ps=16.31 w=4.38 l=0.5
X125 S.t161 G D S.t90 sky130_fd_pr__pfet_g5v0d10v5 ad=6.8636 pd=16.6 as=2.0274 ps=14.09 w=4.38 l=0.5
X126 D G S.t160 S.t15 sky130_fd_pr__pfet_g5v0d10v5 ad=2.7846 pd=18.84 as=6.8636 ps=16.6 w=4.38 l=0.5
X127 S.t159 G D S.t66 sky130_fd_pr__pfet_g5v0d10v5 ad=6.2285 pd=16.31 as=2.0274 ps=14.09 w=4.38 l=0.5
X128 D G S.t158 S.t78 sky130_fd_pr__pfet_g5v0d10v5 ad=2.7846 pd=18.84 as=6.2285 ps=16.31 w=4.38 l=0.5
X129 S.t157 G D S.t36 sky130_fd_pr__pfet_g5v0d10v5 ad=6.8636 pd=16.6 as=2.7846 ps=18.84 w=4.38 l=0.5
X130 S.t156 G D S.t31 sky130_fd_pr__pfet_g5v0d10v5 ad=6.8636 pd=16.6 as=2.7846 ps=18.84 w=4.38 l=0.5
X131 S.t155 G D S.t29 sky130_fd_pr__pfet_g5v0d10v5 ad=6.8636 pd=16.6 as=2.7846 ps=18.84 w=4.38 l=0.5
X132 S.t154 G D S.t36 sky130_fd_pr__pfet_g5v0d10v5 ad=6.2285 pd=16.31 as=2.0274 ps=14.09 w=4.38 l=0.5
X133 S.t153 G D S.t24 sky130_fd_pr__pfet_g5v0d10v5 ad=6.8636 pd=16.6 as=2.7846 ps=18.84 w=4.38 l=0.5
X134 S.t152 G D S.t15 sky130_fd_pr__pfet_g5v0d10v5 ad=6.8636 pd=16.6 as=2.7846 ps=18.84 w=4.38 l=0.5
X135 S.t151 G D S.t36 sky130_fd_pr__pfet_g5v0d10v5 ad=6.8636 pd=16.6 as=2.7846 ps=18.84 w=4.38 l=0.5
X136 D G S.t150 S.t15 sky130_fd_pr__pfet_g5v0d10v5 ad=2.7846 pd=18.84 as=6.8636 ps=16.6 w=4.38 l=0.5
X137 D G S.t149 S.t13 sky130_fd_pr__pfet_g5v0d10v5 ad=2.0274 pd=14.09 as=6.8636 ps=16.6 w=4.38 l=0.5
X138 D G S.t148 S.t13 sky130_fd_pr__pfet_g5v0d10v5 ad=1.3312 pd=9.38 as=6.2285 ps=16.31 w=4.38 l=0.5
X139 D G S.t147 S.t15 sky130_fd_pr__pfet_g5v0d10v5 ad=2.0274 pd=14.09 as=6.2285 ps=16.31 w=4.38 l=0.5
X140 S.t146 G D S.t97 sky130_fd_pr__pfet_g5v0d10v5 ad=6.8636 pd=16.6 as=2.0274 ps=14.09 w=4.38 l=0.5
X141 D G S.t145 S.t8 sky130_fd_pr__pfet_g5v0d10v5 ad=2.7846 pd=18.84 as=6.8636 ps=16.6 w=4.38 l=0.5
X142 S.t144 G D S.t6 sky130_fd_pr__pfet_g5v0d10v5 ad=6.8636 pd=16.6 as=2.7846 ps=18.84 w=4.38 l=0.5
X143 D G S.t143 S.t24 sky130_fd_pr__pfet_g5v0d10v5 ad=2.0274 pd=14.09 as=6.2285 ps=16.31 w=4.38 l=0.5
X144 D G S.t142 S.t0 sky130_fd_pr__pfet_g5v0d10v5 ad=2.7846 pd=18.84 as=6.8636 ps=16.6 w=4.38 l=0.5
X145 D G S.t141 S.t2 sky130_fd_pr__pfet_g5v0d10v5 ad=2.7846 pd=18.84 as=6.8636 ps=16.6 w=4.38 l=0.5
X146 D G S.t140 S.t36 sky130_fd_pr__pfet_g5v0d10v5 ad=2.7846 pd=18.84 as=6.8636 ps=16.6 w=4.38 l=0.5
X147 D G S.t139 S.t13 sky130_fd_pr__pfet_g5v0d10v5 ad=2.0274 pd=14.09 as=6.8636 ps=16.6 w=4.38 l=0.5
X148 D G S.t138 S.t15 sky130_fd_pr__pfet_g5v0d10v5 ad=2.7846 pd=18.84 as=6.8636 ps=16.6 w=4.38 l=0.5
X149 D G S.t137 S.t36 sky130_fd_pr__pfet_g5v0d10v5 ad=2.7846 pd=18.84 as=6.8636 ps=16.6 w=4.38 l=0.5
X150 D G S.t136 S.t31 sky130_fd_pr__pfet_g5v0d10v5 ad=2.7846 pd=18.84 as=6.8636 ps=16.6 w=4.38 l=0.5
X151 D G S.t135 S.t29 sky130_fd_pr__pfet_g5v0d10v5 ad=2.7846 pd=18.84 as=6.8636 ps=16.6 w=4.38 l=0.5
X152 D G S.t134 S.t24 sky130_fd_pr__pfet_g5v0d10v5 ad=2.7846 pd=18.84 as=6.8636 ps=16.6 w=4.38 l=0.5
X153 D G S.t133 S.t6 sky130_fd_pr__pfet_g5v0d10v5 ad=2.0274 pd=14.09 as=6.2285 ps=16.31 w=4.38 l=0.5
X154 D G S.t132 S.t21 sky130_fd_pr__pfet_g5v0d10v5 ad=2.7846 pd=18.84 as=6.2285 ps=16.31 w=4.38 l=0.5
X155 S.t131 G D S.t29 sky130_fd_pr__pfet_g5v0d10v5 ad=6.8636 pd=16.6 as=2.7846 ps=18.84 w=4.38 l=0.5
X156 S.t130 G D S.t0 sky130_fd_pr__pfet_g5v0d10v5 ad=6.2285 pd=16.31 as=2.0274 ps=14.09 w=4.38 l=0.5
X157 S.t129 G D S.t2 sky130_fd_pr__pfet_g5v0d10v5 ad=6.2285 pd=16.31 as=2.0274 ps=14.09 w=4.38 l=0.5
X158 D G S.t128 S.t21 sky130_fd_pr__pfet_g5v0d10v5 ad=2.0274 pd=14.09 as=5.5934 ps=16.02 w=4.38 l=0.5
X159 D G S.t127 S.t6 sky130_fd_pr__pfet_g5v0d10v5 ad=2.7846 pd=18.84 as=6.8636 ps=16.6 w=4.38 l=0.5
X160 D G S.t126 S.t36 sky130_fd_pr__pfet_g5v0d10v5 ad=2.7846 pd=18.84 as=6.8636 ps=16.6 w=4.38 l=0.5
X161 S.t125 G D S.t15 sky130_fd_pr__pfet_g5v0d10v5 ad=6.8636 pd=16.6 as=2.7846 ps=18.84 w=4.38 l=0.5
X162 S.t124 G D S.t13 sky130_fd_pr__pfet_g5v0d10v5 ad=6.2285 pd=16.31 as=2.7846 ps=18.84 w=4.38 l=0.5
X163 D G S.t123 S.t34 sky130_fd_pr__pfet_g5v0d10v5 ad=2.7846 pd=18.84 as=6.8636 ps=16.6 w=4.38 l=0.5
X164 S.t122 G D S.t8 sky130_fd_pr__pfet_g5v0d10v5 ad=6.8636 pd=16.6 as=2.7846 ps=18.84 w=4.38 l=0.5
X165 D G S.t121 S.t6 sky130_fd_pr__pfet_g5v0d10v5 ad=2.7846 pd=18.84 as=6.8636 ps=16.6 w=4.38 l=0.5
X166 D G S.t120 S.t21 sky130_fd_pr__pfet_g5v0d10v5 ad=2.7846 pd=18.84 as=6.2285 ps=16.31 w=4.38 l=0.5
X167 S.t119 G D S.t0 sky130_fd_pr__pfet_g5v0d10v5 ad=6.8636 pd=16.6 as=2.7846 ps=18.84 w=4.38 l=0.5
X168 S.t118 G D S.t2 sky130_fd_pr__pfet_g5v0d10v5 ad=6.8636 pd=16.6 as=2.7846 ps=18.84 w=4.38 l=0.5
X169 S.t117 G D S.t90 sky130_fd_pr__pfet_g5v0d10v5 ad=6.2285 pd=16.31 as=2.7846 ps=18.84 w=4.38 l=0.5
X170 S.t116 G D S.t19 sky130_fd_pr__pfet_g5v0d10v5 ad=6.8636 pd=16.6 as=2.7846 ps=18.84 w=4.38 l=0.5
X171 S.t115 G D S.t13 sky130_fd_pr__pfet_g5v0d10v5 ad=6.2285 pd=16.31 as=2.7846 ps=18.84 w=4.38 l=0.5
X172 S.t114 G D S.t15 sky130_fd_pr__pfet_g5v0d10v5 ad=6.8636 pd=16.6 as=2.7846 ps=18.84 w=4.38 l=0.5
X173 S.t113 G D S.t97 sky130_fd_pr__pfet_g5v0d10v5 ad=6.8636 pd=16.6 as=2.7846 ps=18.84 w=4.38 l=0.5
X174 S.t112 G D S.t34 sky130_fd_pr__pfet_g5v0d10v5 ad=6.8636 pd=16.6 as=2.7846 ps=18.84 w=4.38 l=0.5
X175 S.t111 G D S.t10 sky130_fd_pr__pfet_g5v0d10v5 ad=6.2285 pd=16.31 as=2.0274 ps=14.09 w=4.38 l=0.5
X176 D G S.t110 S.t90 sky130_fd_pr__pfet_g5v0d10v5 ad=2.7846 pd=18.84 as=6.8636 ps=16.6 w=4.38 l=0.5
X177 S.t109 G D S.t4 sky130_fd_pr__pfet_g5v0d10v5 ad=6.8636 pd=16.6 as=2.7846 ps=18.84 w=4.38 l=0.5
X178 S.t108 G D S.t64 sky130_fd_pr__pfet_g5v0d10v5 ad=6.2285 pd=16.31 as=2.7846 ps=18.84 w=4.38 l=0.5
X179 S.t107 G D S.t21 sky130_fd_pr__pfet_g5v0d10v5 ad=6.8636 pd=16.6 as=2.0274 ps=14.09 w=4.38 l=0.5
X180 S.t106 G D S.t90 sky130_fd_pr__pfet_g5v0d10v5 ad=6.8636 pd=16.6 as=2.7846 ps=18.84 w=4.38 l=0.5
X181 D G S.t105 S.t19 sky130_fd_pr__pfet_g5v0d10v5 ad=2.0274 pd=14.09 as=6.8636 ps=16.6 w=4.38 l=0.5
X182 D G S.t104 S.t54 sky130_fd_pr__pfet_g5v0d10v5 ad=2.0274 pd=14.09 as=6.8636 ps=16.6 w=4.38 l=0.5
X183 D G S.t103 S.t97 sky130_fd_pr__pfet_g5v0d10v5 ad=2.7846 pd=18.84 as=6.8636 ps=16.6 w=4.38 l=0.5
X184 D G S.t102 S.t34 sky130_fd_pr__pfet_g5v0d10v5 ad=2.7846 pd=18.84 as=6.8636 ps=16.6 w=4.38 l=0.5
X185 D G S.t101 S.t31 sky130_fd_pr__pfet_g5v0d10v5 ad=2.7846 pd=18.84 as=6.8636 ps=16.6 w=4.38 l=0.5
X186 S.t100 G D S.t24 sky130_fd_pr__pfet_g5v0d10v5 ad=6.8636 pd=16.6 as=2.7846 ps=18.84 w=4.38 l=0.5
X187 S.t99 G D S.t34 sky130_fd_pr__pfet_g5v0d10v5 ad=6.8636 pd=16.6 as=2.7846 ps=18.84 w=4.38 l=0.5
X188 S.t98 G D S.t97 sky130_fd_pr__pfet_g5v0d10v5 ad=6.8636 pd=16.6 as=2.7846 ps=18.84 w=4.38 l=0.5
X189 D G S.t96 S.t76 sky130_fd_pr__pfet_g5v0d10v5 ad=2.7846 pd=18.84 as=6.8636 ps=16.6 w=4.38 l=0.5
X190 D G S.t95 S.t4 sky130_fd_pr__pfet_g5v0d10v5 ad=2.7846 pd=18.84 as=6.8636 ps=16.6 w=4.38 l=0.5
X191 D G S.t94 S.t10 sky130_fd_pr__pfet_g5v0d10v5 ad=2.0274 pd=14.09 as=6.2285 ps=16.31 w=4.38 l=0.5
X192 D G S.t93 S.t64 sky130_fd_pr__pfet_g5v0d10v5 ad=2.7846 pd=18.84 as=6.8636 ps=16.6 w=4.38 l=0.5
X193 D G S.t92 S.t78 sky130_fd_pr__pfet_g5v0d10v5 ad=2.7846 pd=18.84 as=6.8636 ps=16.6 w=4.38 l=0.5
X194 D G S.t91 S.t90 sky130_fd_pr__pfet_g5v0d10v5 ad=2.7846 pd=18.84 as=6.8636 ps=16.6 w=4.38 l=0.5
X195 S.t89 G D S.t19 sky130_fd_pr__pfet_g5v0d10v5 ad=6.8636 pd=16.6 as=2.7846 ps=18.84 w=4.38 l=0.5
X196 S.t88 G D S.t64 sky130_fd_pr__pfet_g5v0d10v5 ad=6.8636 pd=16.6 as=2.7846 ps=18.84 w=4.38 l=0.5
X197 S.t87 G D S.t21 sky130_fd_pr__pfet_g5v0d10v5 ad=6.8636 pd=16.6 as=2.0274 ps=14.09 w=4.38 l=0.5
X198 D G S.t86 S.t4 sky130_fd_pr__pfet_g5v0d10v5 ad=2.7846 pd=18.84 as=6.8636 ps=16.6 w=4.38 l=0.5
X199 S.t85 G D S.t21 sky130_fd_pr__pfet_g5v0d10v5 ad=6.8636 pd=16.6 as=2.0274 ps=14.09 w=4.38 l=0.5
X200 S.t84 G D S.t54 sky130_fd_pr__pfet_g5v0d10v5 ad=6.8636 pd=16.6 as=2.7846 ps=18.84 w=4.38 l=0.5
X201 D G S.t83 S.t19 sky130_fd_pr__pfet_g5v0d10v5 ad=2.7846 pd=18.84 as=6.8636 ps=16.6 w=4.38 l=0.5
X202 D G S.t82 S.t54 sky130_fd_pr__pfet_g5v0d10v5 ad=2.7846 pd=18.84 as=6.8636 ps=16.6 w=4.38 l=0.5
X203 S.t81 G D S.t76 sky130_fd_pr__pfet_g5v0d10v5 ad=6.8636 pd=16.6 as=2.7846 ps=18.84 w=4.38 l=0.5
X204 D G S.t80 S.t76 sky130_fd_pr__pfet_g5v0d10v5 ad=2.7846 pd=18.84 as=6.8636 ps=16.6 w=4.38 l=0.5
X205 S.t79 G D S.t78 sky130_fd_pr__pfet_g5v0d10v5 ad=6.8636 pd=16.6 as=2.7846 ps=18.84 w=4.38 l=0.5
X206 S.t77 G D S.t76 sky130_fd_pr__pfet_g5v0d10v5 ad=6.8636 pd=16.6 as=2.7846 ps=18.84 w=4.38 l=0.5
X207 D G S.t75 S.t64 sky130_fd_pr__pfet_g5v0d10v5 ad=2.7846 pd=18.84 as=6.8636 ps=16.6 w=4.38 l=0.5
X208 D G S.t74 S.t26 sky130_fd_pr__pfet_g5v0d10v5 ad=2.7846 pd=18.84 as=6.8636 ps=16.6 w=4.38 l=0.5
X209 S.t73 G D S.t19 sky130_fd_pr__pfet_g5v0d10v5 ad=6.8636 pd=16.6 as=2.7846 ps=18.84 w=4.38 l=0.5
X210 S.t72 G D S.t54 sky130_fd_pr__pfet_g5v0d10v5 ad=6.8636 pd=16.6 as=2.7846 ps=18.84 w=4.38 l=0.5
X211 D G S.t71 S.t66 sky130_fd_pr__pfet_g5v0d10v5 ad=1.3312 pd=9.38 as=6.2285 ps=16.31 w=4.38 l=0.5
X212 S.t70 G D S.t26 sky130_fd_pr__pfet_g5v0d10v5 ad=6.8636 pd=16.6 as=2.7846 ps=18.84 w=4.38 l=0.5
X213 S.t69 G D S.t66 sky130_fd_pr__pfet_g5v0d10v5 ad=6.2285 pd=16.31 as=2.0274 ps=14.09 w=4.38 l=0.5
X214 D G S.t68 S.t66 sky130_fd_pr__pfet_g5v0d10v5 ad=2.0274 pd=14.09 as=6.2285 ps=16.31 w=4.38 l=0.5
X215 S.t67 G D S.t66 sky130_fd_pr__pfet_g5v0d10v5 ad=6.2285 pd=16.31 as=2.0274 ps=14.09 w=4.38 l=0.5
X216 D G S.t65 S.t64 sky130_fd_pr__pfet_g5v0d10v5 ad=2.7846 pd=18.84 as=6.8636 ps=16.6 w=4.38 l=0.5
X217 S.t63 G D S.t24 sky130_fd_pr__pfet_g5v0d10v5 ad=6.8636 pd=16.6 as=2.7846 ps=18.84 w=4.38 l=0.5
X218 S.t62 G D S.t24 sky130_fd_pr__pfet_g5v0d10v5 ad=6.2285 pd=16.31 as=2.0274 ps=14.09 w=4.38 l=0.5
X219 D G S.t61 S.t13 sky130_fd_pr__pfet_g5v0d10v5 ad=2.0274 pd=14.09 as=6.8636 ps=16.6 w=4.38 l=0.5
X220 S.t60 G D S.t36 sky130_fd_pr__pfet_g5v0d10v5 ad=6.8636 pd=16.6 as=2.7846 ps=18.84 w=4.38 l=0.5
X221 S.t59 G D S.t31 sky130_fd_pr__pfet_g5v0d10v5 ad=6.8636 pd=16.6 as=2.7846 ps=18.84 w=4.38 l=0.5
X222 S.t58 G D S.t29 sky130_fd_pr__pfet_g5v0d10v5 ad=6.8636 pd=16.6 as=2.7846 ps=18.84 w=4.38 l=0.5
X223 D G S.t57 S.t21 sky130_fd_pr__pfet_g5v0d10v5 ad=2.7846 pd=18.84 as=6.2285 ps=16.31 w=4.38 l=0.5
X224 S.t56 G D S.t13 sky130_fd_pr__pfet_g5v0d10v5 ad=6.2285 pd=16.31 as=2.7846 ps=18.84 w=4.38 l=0.5
X225 S.t55 G D S.t54 sky130_fd_pr__pfet_g5v0d10v5 ad=6.8636 pd=16.6 as=2.7846 ps=18.84 w=4.38 l=0.5
X226 S.t53 G D S.t6 sky130_fd_pr__pfet_g5v0d10v5 ad=6.8636 pd=16.6 as=2.7846 ps=18.84 w=4.38 l=0.5
X227 S.t52 G D S.t24 sky130_fd_pr__pfet_g5v0d10v5 ad=6.8636 pd=16.6 as=2.7846 ps=18.84 w=4.38 l=0.5
X228 D G S.t51 S.t0 sky130_fd_pr__pfet_g5v0d10v5 ad=2.7846 pd=18.84 as=6.8636 ps=16.6 w=4.38 l=0.5
X229 D G S.t50 S.t2 sky130_fd_pr__pfet_g5v0d10v5 ad=2.7846 pd=18.84 as=6.8636 ps=16.6 w=4.38 l=0.5
X230 S.t49 G D S.t6 sky130_fd_pr__pfet_g5v0d10v5 ad=6.2285 pd=16.31 as=2.0274 ps=14.09 w=4.38 l=0.5
X231 D G S.t48 S.t15 sky130_fd_pr__pfet_g5v0d10v5 ad=2.7846 pd=18.84 as=6.8636 ps=16.6 w=4.38 l=0.5
X232 D G S.t47 S.t13 sky130_fd_pr__pfet_g5v0d10v5 ad=2.0274 pd=14.09 as=6.8636 ps=16.6 w=4.38 l=0.5
X233 D G S.t46 S.t2 sky130_fd_pr__pfet_g5v0d10v5 ad=2.0274 pd=14.09 as=6.2285 ps=16.31 w=4.38 l=0.5
X234 D G S.t45 S.t0 sky130_fd_pr__pfet_g5v0d10v5 ad=2.0274 pd=14.09 as=6.2285 ps=16.31 w=4.38 l=0.5
X235 D G S.t44 S.t31 sky130_fd_pr__pfet_g5v0d10v5 ad=2.0274 pd=14.09 as=6.2285 ps=16.31 w=4.38 l=0.5
X236 D G S.t43 S.t29 sky130_fd_pr__pfet_g5v0d10v5 ad=2.0274 pd=14.09 as=6.2285 ps=16.31 w=4.38 l=0.5
X237 D G S.t42 S.t8 sky130_fd_pr__pfet_g5v0d10v5 ad=2.7846 pd=18.84 as=6.8636 ps=16.6 w=4.38 l=0.5
X238 S.t41 G D S.t6 sky130_fd_pr__pfet_g5v0d10v5 ad=6.8636 pd=16.6 as=2.7846 ps=18.84 w=4.38 l=0.5
X239 D G S.t40 S.t24 sky130_fd_pr__pfet_g5v0d10v5 ad=2.7846 pd=18.84 as=6.8636 ps=16.6 w=4.38 l=0.5
X240 D G S.t39 S.t0 sky130_fd_pr__pfet_g5v0d10v5 ad=2.7846 pd=18.84 as=6.8636 ps=16.6 w=4.38 l=0.5
X241 D G S.t38 S.t2 sky130_fd_pr__pfet_g5v0d10v5 ad=2.7846 pd=18.84 as=6.8636 ps=16.6 w=4.38 l=0.5
X242 D G S.t37 S.t36 sky130_fd_pr__pfet_g5v0d10v5 ad=2.7846 pd=18.84 as=6.8636 ps=16.6 w=4.38 l=0.5
X243 S.t35 G D S.t34 sky130_fd_pr__pfet_g5v0d10v5 ad=6.8636 pd=16.6 as=2.0274 ps=14.09 w=4.38 l=0.5
X244 D G S.t33 S.t8 sky130_fd_pr__pfet_g5v0d10v5 ad=2.7846 pd=18.84 as=6.8636 ps=16.6 w=4.38 l=0.5
X245 D G S.t32 S.t31 sky130_fd_pr__pfet_g5v0d10v5 ad=2.7846 pd=18.84 as=6.8636 ps=16.6 w=4.38 l=0.5
X246 D G S.t30 S.t29 sky130_fd_pr__pfet_g5v0d10v5 ad=2.7846 pd=18.84 as=6.8636 ps=16.6 w=4.38 l=0.5
X247 S.t28 G D S.t8 sky130_fd_pr__pfet_g5v0d10v5 ad=6.2285 pd=16.31 as=2.0274 ps=14.09 w=4.38 l=0.5
X248 S.t27 G D S.t26 sky130_fd_pr__pfet_g5v0d10v5 ad=6.8636 pd=16.6 as=2.7846 ps=18.84 w=4.38 l=0.5
X249 D G S.t25 S.t24 sky130_fd_pr__pfet_g5v0d10v5 ad=2.7846 pd=18.84 as=6.8636 ps=16.6 w=4.38 l=0.5
X250 D G S.t23 S.t6 sky130_fd_pr__pfet_g5v0d10v5 ad=2.7846 pd=18.84 as=6.8636 ps=16.6 w=4.38 l=0.5
X251 D G S.t22 S.t21 sky130_fd_pr__pfet_g5v0d10v5 ad=2.7846 pd=18.84 as=6.2285 ps=16.31 w=4.38 l=0.5
X252 D G S.t20 S.t19 sky130_fd_pr__pfet_g5v0d10v5 ad=2.7846 pd=18.84 as=6.2285 ps=16.31 w=4.38 l=0.5
X253 S.t18 G D S.t0 sky130_fd_pr__pfet_g5v0d10v5 ad=6.8636 pd=16.6 as=2.7846 ps=18.84 w=4.38 l=0.5
X254 S.t17 G D S.t2 sky130_fd_pr__pfet_g5v0d10v5 ad=6.8636 pd=16.6 as=2.7846 ps=18.84 w=4.38 l=0.5
X255 S.t16 G D S.t15 sky130_fd_pr__pfet_g5v0d10v5 ad=6.8636 pd=16.6 as=2.7846 ps=18.84 w=4.38 l=0.5
X256 S.t14 G D S.t13 sky130_fd_pr__pfet_g5v0d10v5 ad=6.2285 pd=16.31 as=2.7846 ps=18.84 w=4.38 l=0.5
X257 S.t12 G D S.t8 sky130_fd_pr__pfet_g5v0d10v5 ad=6.8636 pd=16.6 as=2.7846 ps=18.84 w=4.38 l=0.5
X258 S.t11 G D S.t10 sky130_fd_pr__pfet_g5v0d10v5 ad=5.5934 pd=16.02 as=2.0274 ps=14.09 w=4.38 l=0.5
X259 S.t9 G D S.t8 sky130_fd_pr__pfet_g5v0d10v5 ad=6.8636 pd=16.6 as=2.7846 ps=18.84 w=4.38 l=0.5
X260 D G S.t7 S.t6 sky130_fd_pr__pfet_g5v0d10v5 ad=2.7846 pd=18.84 as=6.8636 ps=16.6 w=4.38 l=0.5
X261 S.t5 G D S.t4 sky130_fd_pr__pfet_g5v0d10v5 ad=6.2285 pd=16.31 as=2.7846 ps=18.84 w=4.38 l=0.5
X262 S.t3 G D S.t2 sky130_fd_pr__pfet_g5v0d10v5 ad=6.8636 pd=16.6 as=2.7846 ps=18.84 w=4.38 l=0.5
X263 S.t1 G D S.t0 sky130_fd_pr__pfet_g5v0d10v5 ad=6.8636 pd=16.6 as=2.7846 ps=18.84 w=4.38 l=0.5
R0 S.n963 S.n962 153.554
R1 S.n523 S.n522 153.554
R2 S.n743 S.n742 153.554
R3 S.n1347 S.n1346 153.554
R4 S.n108 S.n107 153.554
R5 S.n1105 S.n1104 153.118
R6 S.n1458 S.n1457 153.118
R7 S.n259 S.n258 153.118
R8 S.n610 S.n609 153.118
R9 S.n875 S.n874 153.118
R10 S.n344 S.n343 146.135
R11 S.n314 S.n313 146.135
R12 S.n335 S.n334 146.135
R13 S.n317 S.n316 146.135
R14 S.n358 S.n357 146.135
R15 S.n1196 S.n1195 145.699
R16 S.n1162 S.n1161 145.699
R17 S.n1172 S.n1171 145.699
R18 S.n1180 S.n1179 145.699
R19 S.n1150 S.n1149 145.699
R20 S.n242 S.n241 101.08
R21 S.n384 S.n383 101.08
R22 S.n636 S.n635 101.08
R23 S.n1217 S.n1216 101.08
R24 S.n1112 S.n1111 101.08
R25 S.n246 S.n245 98.123
R26 S.n1201 S.n1200 88.439
R27 S.n1110 S.n1109 68.586
R28 S.n1215 S.n1214 68.586
R29 S.n634 S.n633 68.586
R30 S.n382 S.n381 68.586
R31 S.n240 S.n239 68.586
R32 S.n96 S.n95 65.312
R33 S.n511 S.n510 65.312
R34 S.n731 S.n730 65.312
R35 S.n1335 S.n1334 65.312
R36 S.n973 S.n972 65.312
R37 S.t10 S.t13 33.493
R38 S.n244 S.t29 29.23
R39 S.n98 S.t2 29.23
R40 S.n386 S.t36 29.23
R41 S.n513 S.t8 29.23
R42 S.n638 S.t24 29.23
R43 S.n733 S.t15 29.23
R44 S.n1219 S.t31 29.23
R45 S.n1337 S.t0 29.23
R46 S.n1114 S.t6 29.23
R47 S.n975 S.t21 29.23
R48 S.t54 S.n206 28.256
R49 S.t34 S.n169 28.256
R50 S.t19 S.n462 28.256
R51 S.t90 S.n562 28.256
R52 S.t78 S.n700 28.256
R53 S.t4 S.n785 28.256
R54 S.t76 S.n1256 28.256
R55 S.t97 S.n1393 28.256
R56 S.t26 S.n1083 28.256
R57 S.t64 S.n936 28.256
R58 S.t66 S.n1125 28.256
R59 S.n1202 S.n1201 10.138
R60 S.n503 S.t110 6.541
R61 S.n580 S.n579 6.541
R62 S.n1124 S.t174 6.541
R63 S.n1123 S.t128 6.541
R64 S.n1105 S.t220 6.541
R65 S.n1055 S.t45 6.541
R66 S.n1196 S.t120 6.541
R67 S.n1194 S.t68 6.541
R68 S.n947 S.n946 6.541
R69 S.n955 S.t75 6.541
R70 S.n958 S.t7 6.541
R71 S.n950 S.n949 6.541
R72 S.n1091 S.n1090 6.541
R73 S.n1099 S.t164 6.541
R74 S.n1102 S.t283 6.541
R75 S.n1094 S.n1093 6.541
R76 S.n1373 S.n1372 6.541
R77 S.n1391 S.t215 6.541
R78 S.n1388 S.t101 6.541
R79 S.n1376 S.n1375 6.541
R80 S.n1458 S.t267 6.541
R81 S.n1460 S.t147 6.541
R82 S.n341 S.t251 6.541
R83 S.n76 S.n75 6.541
R84 S.n204 S.t256 6.541
R85 S.n201 S.t61 6.541
R86 S.n79 S.n78 6.541
R87 S.n445 S.n444 6.541
R88 S.n460 S.t83 6.541
R89 S.n457 S.t38 6.541
R90 S.n442 S.n441 6.541
R91 S.n960 S.t133 6.541
R92 S.n1063 S.n1062 6.541
R93 S.n1081 S.t261 6.541
R94 S.n1078 S.t51 6.541
R95 S.n1060 S.n1059 6.541
R96 S.n1356 S.n1355 6.541
R97 S.n1367 S.t194 6.541
R98 S.n1364 S.t219 6.541
R99 S.n1353 S.n1352 6.541
R100 S.n1239 S.n1238 6.541
R101 S.n1254 S.t96 6.541
R102 S.n1251 S.t48 6.541
R103 S.n1236 S.n1235 6.541
R104 S.n772 S.n771 6.541
R105 S.n783 S.t190 6.541
R106 S.n780 S.t216 6.541
R107 S.n769 S.n768 6.541
R108 S.n681 S.n680 6.541
R109 S.n698 S.t92 6.541
R110 S.n695 S.t42 6.541
R111 S.n678 S.n677 6.541
R112 S.n551 S.n550 6.541
R113 S.n560 S.t186 6.541
R114 S.n557 S.t214 6.541
R115 S.n548 S.n547 6.541
R116 S.n87 S.n86 6.541
R117 S.n188 S.t178 6.541
R118 S.n191 S.t211 6.541
R119 S.n194 S.n193 6.541
R120 S.n306 S.t189 6.541
R121 S.n17 S.n16 6.541
R122 S.n45 S.t270 6.541
R123 S.n42 S.t47 6.541
R124 S.n20 S.n19 6.541
R125 S.n472 S.n471 6.541
R126 S.n484 S.t105 6.541
R127 S.n487 S.t50 6.541
R128 S.n469 S.n468 6.541
R129 S.n524 S.t224 6.541
R130 S.n114 S.n113 6.541
R131 S.n129 S.t196 6.541
R132 S.n126 S.t218 6.541
R133 S.n117 S.n116 6.541
R134 S.n141 S.n140 6.541
R135 S.n149 S.t102 6.541
R136 S.n146 S.t135 6.541